
     RDKit          2D

 25 27  0  0  0  0  0  0  0  0999 V2000
    3.0000   -2.5981    0.0000 O   0  0  0  0  0  0  0  0  0  0  0  0
    1.5000   -2.5981    0.0000 C   0  0  0  0  0  0  0  0  0  0  0  0
    0.7500   -3.8971    0.0000 N   0  0  0  0  0  0  0  0  0  0  0  0
    1.5000   -5.1962    0.0000 O   0  0  0  0  0  0  0  0  0  0  0  0
    0.7500   -6.4952    0.0000 C   0  0  0  0  0  0  0  0  0  0  0  0
    1.5000   -7.7942    0.0000 C   0  0  0  0  0  0  0  0  0  0  0  0
    2.7990   -8.5442    0.0000 C   0  0  0  0  0  0  0  0  0  0  0  0
    1.5000   -9.2942    0.0000 C   0  0  0  0  0  0  0  0  0  0  0  0
    0.7500   -1.2990    0.0000 C   0  0  0  0  0  0  0  0  0  0  0  0
    1.5000    0.0000    0.0000 C   0  0  0  0  0  0  0  0  0  0  0  0
    0.7500    1.2990    0.0000 C   0  0  0  0  0  0  0  0  0  0  0  0
   -0.7500    1.2990    0.0000 C   0  0  0  0  0  0  0  0  0  0  0  0
   -1.5000    2.5981    0.0000 F   0  0  0  0  0  0  0  0  0  0  0  0
   -1.5000    0.0000    0.0000 C   0  0  0  0  0  0  0  0  0  0  0  0
   -3.0000    0.0000    0.0000 F   0  0  0  0  0  0  0  0  0  0  0  0
   -0.7500   -1.2990    0.0000 C   0  0  0  0  0  0  0  0  0  0  0  0
   -1.5000   -2.5981    0.0000 N   0  0  0  0  0  0  0  0  0  0  0  0
   -3.0000   -2.5981    0.0000 C   0  0  0  0  0  0  0  0  0  0  0  0
   -3.7500   -1.2990    0.0000 C   0  0  0  0  0  0  0  0  0  0  0  0
   -5.2500   -1.2990    0.0000 C   0  0  0  0  0  0  0  0  0  0  0  0
   -6.0000   -2.5981    0.0000 C   0  0  0  0  0  0  0  0  0  0  0  0
   -7.5000   -2.5981    0.0000 I   0  0  0  0  0  0  0  0  0  0  0  0
   -5.2500   -3.8971    0.0000 C   0  0  0  0  0  0  0  0  0  0  0  0
   -3.7500   -3.8971    0.0000 C   0  0  0  0  0  0  0  0  0  0  0  0
   -3.0000   -5.1962    0.0000 Cl  0  0  0  0  0  0  0  0  0  0  0  0
  1  2  2  0
  2  3  1  0
  3  4  1  0
  4  5  1  0
  5  6  1  0
  6  7  1  0
  7  8  1  0
  2  9  1  0
  9 10  2  0
 10 11  1  0
 11 12  2  0
 12 13  1  0
 12 14  1  0
 14 15  1  0
 14 16  2  0
 16 17  1  0
 17 18  1  0
 18 19  2  0
 19 20  1  0
 20 21  2  0
 21 22  1  0
 21 23  1  0
 23 24  2  0
 24 25  1  0
  8  6  1  0
 16  9  1  0
 24 18  1  0
M  END
>  <Compound_ID>  (1) 
CHEMBL105442

>  <Active>  (1) 
1

>  <Smiles>  (1) 
O=C(NOCC1CC1)c1ccc(F)c(F)c1Nc1ccc(I)cc1Cl

>  <canonical_smi>  (1) 
O=C(NOCC1CC1)c1ccc(F)c(F)c1Nc1ccc(I)cc1Cl

>  <Set>  (1) 
G1 active

>  <Set_type>  (1) 
G1

>  <MW>  (1) 
478.66

>  <HBD>  (1) 
2

>  <HBA>  (1) 
3

>  <NRB>  (1) 
6

>  <NR>  (1) 
3

>  <NAR>  (1) 
2

>  <PSA>  (1) 
50.36

>  <Standard Type>  (1) 
nan

>  <Standard Relation>  (1) 
nan

>  <Standard Units>  (1) 
nan

>  <Standard Value>  (1) 
nan

>  <Assay ChEMBL ID>  (1) 
nan

>  <Assay Description>  (1) 
nan

>  <BAO Label>  (1) 
nan

>  <bits>  (1) 
<rdkit.DataStructs.cDataStructs.ExplicitBitVect object at 0x000002AD6E9966C0>

>  <Group>  (1) 
G2

$$$$

     RDKit          2D

 30 33  0  0  0  0  0  0  0  0999 V2000
    3.7500   -1.2990    0.0000 C   0  0  0  0  0  0  0  0  0  0  0  0
    3.0000    0.0000    0.0000 O   0  0  0  0  0  0  0  0  0  0  0  0
    1.5000    0.0000    0.0000 C   0  0  0  0  0  0  0  0  0  0  0  0
    0.7500   -1.2990    0.0000 C   0  0  0  0  0  0  0  0  0  0  0  0
   -0.7500   -1.2990    0.0000 C   0  0  0  0  0  0  0  0  0  0  0  0
   -1.5000   -2.5981    0.0000 N   0  0  0  0  0  0  0  0  0  0  0  0
   -3.0000   -2.5981    0.0000 C   0  0  0  0  0  0  0  0  0  0  0  0
   -3.7500   -1.2990    0.0000 C   0  0  0  0  0  0  0  0  0  0  0  0
   -5.2500   -1.2990    0.0000 C   0  0  0  0  0  0  0  0  0  0  0  0
   -6.7500   -1.2990    0.0000 N   0  0  0  0  0  0  0  0  0  0  0  0
   -3.0000    0.0000    0.0000 C   0  0  0  0  0  0  0  0  0  0  0  0
   -3.7500    1.2990    0.0000 N   0  0  0  0  0  0  0  0  0  0  0  0
   -3.0000    2.5981    0.0000 C   0  0  0  0  0  0  0  0  0  0  0  0
   -1.5000    2.5981    0.0000 C   0  0  0  0  0  0  0  0  0  0  0  0
   -0.7500    3.8971    0.0000 C   0  0  0  0  0  0  0  0  0  0  0  0
   -1.5000    5.1962    0.0000 C   0  0  0  0  0  0  0  0  0  0  0  0
   -0.7500    6.4952    0.0000 C   0  0  0  0  0  0  0  0  0  0  0  0
    0.7500    6.4952    0.0000 C   0  0  0  0  0  0  0  0  0  0  0  0
    1.5000    5.1962    0.0000 C   0  0  0  0  0  0  0  0  0  0  0  0
    3.0000    5.1962    0.0000 C   0  0  0  0  0  0  0  0  0  0  0  0
    3.7500    6.4952    0.0000 C   0  0  0  0  0  0  0  0  0  0  0  0
    3.0000    7.7942    0.0000 C   0  0  0  0  0  0  0  0  0  0  0  0
    1.5000    7.7942    0.0000 C   0  0  0  0  0  0  0  0  0  0  0  0
   -3.0000    5.1962    0.0000 C   0  0  0  0  0  0  0  0  0  0  0  0
   -3.7500    3.8971    0.0000 C   0  0  0  0  0  0  0  0  0  0  0  0
   -1.5000    0.0000    0.0000 C   0  0  0  0  0  0  0  0  0  0  0  0
   -0.7500    1.2990    0.0000 C   0  0  0  0  0  0  0  0  0  0  0  0
    0.7500    1.2990    0.0000 C   0  0  0  0  0  0  0  0  0  0  0  0
    1.5000    2.5981    0.0000 O   0  0  0  0  0  0  0  0  0  0  0  0
    3.0000    2.5981    0.0000 C   0  0  0  0  0  0  0  0  0  0  0  0
  1  2  1  0
  2  3  1  0
  3  4  2  0
  4  5  1  0
  5  6  2  0
  6  7  1  0
  7  8  2  0
  8  9  1  0
  9 10  3  0
  8 11  1  0
 11 12  1  0
 12 13  1  0
 13 14  2  0
 14 15  1  0
 15 16  2  0
 16 17  1  0
 17 18  1  0
 18 19  2  0
 19 20  1  0
 20 21  2  0
 21 22  1  0
 22 23  2  0
 16 24  1  0
 24 25  2  0
 11 26  2  0
 26 27  1  0
 27 28  2  0
 28 29  1  0
 29 30  1  0
 28  3  1  0
 26  5  1  0
 25 13  1  0
 23 18  1  0
M  END
>  <Compound_ID>  (2) 
CHEMBL31806

>  <Active>  (2) 
1

>  <Smiles>  (2) 
COc1cc2ncc(C#N)c(Nc3ccc(Cc4ccccc4)cc3)c2cc1OC

>  <canonical_smi>  (2) 
COc1cc2ncc(C#N)c(Nc3ccc(Cc4ccccc4)cc3)c2cc1OC

>  <Set>  (2) 
G1 active

>  <Set_type>  (2) 
G1

>  <MW>  (2) 
395.46

>  <HBD>  (2) 
1

>  <HBA>  (2) 
5

>  <NRB>  (2) 
6

>  <NR>  (2) 
4

>  <NAR>  (2) 
4

>  <PSA>  (2) 
67.17

>  <Standard Type>  (2) 
nan

>  <Standard Relation>  (2) 
nan

>  <Standard Units>  (2) 
nan

>  <Standard Value>  (2) 
nan

>  <Assay ChEMBL ID>  (2) 
nan

>  <Assay Description>  (2) 
nan

>  <BAO Label>  (2) 
nan

>  <bits>  (2) 
<rdkit.DataStructs.cDataStructs.ExplicitBitVect object at 0x000002AD6E9965E0>

>  <Group>  (2) 
G2

$$$$

     RDKit          2D

 19 21  0  0  0  0  0  0  0  0999 V2000
   -5.7582   -2.4000    0.0000 N   0  0  0  0  0  0  0  0  0  0  0  0
   -5.1687   -1.0207    0.0000 C   0  0  0  0  0  0  0  0  0  0  0  0
   -5.9380    0.2669    0.0000 N   0  0  0  0  0  0  0  0  0  0  0  0
   -4.9511    1.3965    0.0000 C   0  0  0  0  0  0  0  0  0  0  0  0
   -5.2849    2.8589    0.0000 O   0  0  0  0  0  0  0  0  0  0  0  0
   -3.5718    0.8070    0.0000 C   0  0  0  0  0  0  0  0  0  0  0  0
   -2.2841    1.5763    0.0000 C   0  0  0  0  0  0  0  0  0  0  0  0
   -2.4186    3.0703    0.0000 C   0  0  0  0  0  0  0  0  0  0  0  0
   -1.3344    4.1069    0.0000 C   0  0  0  0  0  0  0  0  0  0  0  0
    0.1520    3.9056    0.0000 N   0  0  0  0  0  0  0  0  0  0  0  0
    0.9214    2.6179    0.0000 C   0  0  0  0  0  0  0  0  0  0  0  0
    2.4153    2.7523    0.0000 O   0  0  0  0  0  0  0  0  0  0  0  0
    0.3943    1.2135    0.0000 C   0  0  0  0  0  0  0  0  0  0  0  0
    1.2760    0.0000    0.0000 N   0  0  0  0  0  0  0  0  0  0  0  0
    0.3943   -1.2135    0.0000 C   0  0  0  0  0  0  0  0  0  0  0  0
    0.8578   -2.6401    0.0000 Br  0  0  0  0  0  0  0  0  0  0  0  0
   -1.0323   -0.7500    0.0000 C   0  0  0  0  0  0  0  0  0  0  0  0
   -1.0323    0.7500    0.0000 C   0  0  0  0  0  0  0  0  0  0  0  0
   -3.7063   -0.6870    0.0000 N   0  0  0  0  0  0  0  0  0  0  0  0
  1  2  1  0
  2  3  2  0
  3  4  1  0
  4  5  2  0
  4  6  1  0
  6  7  2  0
  7  8  1  0
  8  9  1  0
  9 10  1  0
 10 11  1  0
 11 12  2  0
 11 13  1  0
 13 14  1  0
 14 15  1  0
 15 16  1  0
 15 17  2  0
 17 18  1  0
  6 19  1  0
 19  2  1  0
 18  7  1  0
 18 13  2  0
M  END
>  <Compound_ID>  (3) 
CHEMBL361708

>  <Active>  (3) 
1

>  <Smiles>  (3) 
NC1=NC(=O)/C(=C2\CCNC(=O)c3[nH]c(Br)cc32)N1

>  <canonical_smi>  (3) 
NC1=NC(=O)/C(=C2\CCNC(=O)c3[nH]c(Br)cc32)N1

>  <Set>  (3) 
G1 active

>  <Set_type>  (3) 
G1

>  <MW>  (3) 
324.14

>  <HBD>  (3) 
4

>  <HBA>  (3) 
4

>  <NRB>  (3) 
0

>  <NR>  (3) 
3

>  <NAR>  (3) 
1

>  <PSA>  (3) 
112.37

>  <Standard Type>  (3) 
nan

>  <Standard Relation>  (3) 
nan

>  <Standard Units>  (3) 
nan

>  <Standard Value>  (3) 
nan

>  <Assay ChEMBL ID>  (3) 
nan

>  <Assay Description>  (3) 
nan

>  <BAO Label>  (3) 
nan

>  <bits>  (3) 
<rdkit.DataStructs.cDataStructs.ExplicitBitVect object at 0x000002AD6E996810>

>  <Group>  (3) 
G2

$$$$

     RDKit          2D

 24 25  0  0  0  0  0  0  0  0999 V2000
   -0.8113   -8.6446    0.0000 C   0  0  0  0  0  0  0  0  0  0  0  0
    0.4022   -7.7629    0.0000 C   0  0  0  0  0  0  0  0  0  0  0  0
    1.7725   -8.3730    0.0000 O   0  0  0  0  0  0  0  0  0  0  0  0
    0.2454   -6.2711    0.0000 N   0  0  0  0  0  0  0  0  0  0  0  0
    1.3601   -5.2674    0.0000 C   0  0  0  0  0  0  0  0  0  0  0  0
    0.7500   -3.8971    0.0000 C   0  0  0  0  0  0  0  0  0  0  0  0
    1.5000   -2.5981    0.0000 N   0  0  0  0  0  0  0  0  0  0  0  0
    3.0000   -2.5981    0.0000 C   0  0  0  0  0  0  0  0  0  0  0  0
    3.7500   -1.2990    0.0000 C   0  0  0  0  0  0  0  0  0  0  0  0
    5.2500   -1.2990    0.0000 C   0  0  0  0  0  0  0  0  0  0  0  0
    6.0000   -2.5981    0.0000 C   0  0  0  0  0  0  0  0  0  0  0  0
    7.5000   -2.5981    0.0000 I   0  0  0  0  0  0  0  0  0  0  0  0
    5.2500   -3.8971    0.0000 C   0  0  0  0  0  0  0  0  0  0  0  0
    3.7500   -3.8971    0.0000 C   0  0  0  0  0  0  0  0  0  0  0  0
    3.0000   -5.1962    0.0000 F   0  0  0  0  0  0  0  0  0  0  0  0
   -0.7418   -4.0539    0.0000 C   0  0  0  0  0  0  0  0  0  0  0  0
   -1.7455   -2.9392    0.0000 C   0  0  0  0  0  0  0  0  0  0  0  0
   -1.2820   -1.5126    0.0000 O   0  0  0  0  0  0  0  0  0  0  0  0
   -3.2127   -3.2511    0.0000 N   0  0  0  0  0  0  0  0  0  0  0  0
   -4.2164   -2.1363    0.0000 O   0  0  0  0  0  0  0  0  0  0  0  0
   -5.6836   -2.4482    0.0000 C   0  0  0  0  0  0  0  0  0  0  0  0
   -6.6873   -1.3335    0.0000 C   0  0  0  0  0  0  0  0  0  0  0  0
   -8.1545   -1.6454    0.0000 O   0  0  0  0  0  0  0  0  0  0  0  0
   -1.0537   -5.5211    0.0000 C   0  0  0  0  0  0  0  0  0  0  0  0
  1  2  1  0
  2  3  2  0
  2  4  1  0
  4  5  1  0
  5  6  2  0
  6  7  1  0
  7  8  1  0
  8  9  2  0
  9 10  1  0
 10 11  2  0
 11 12  1  0
 11 13  1  0
 13 14  2  0
 14 15  1  0
  6 16  1  0
 16 17  1  0
 17 18  2  0
 17 19  1  0
 19 20  1  0
 20 21  1  0
 21 22  1  0
 22 23  1  0
 16 24  2  0
 24  4  1  0
 14  8  1  0
M  END
>  <Compound_ID>  (4) 
CHEMBL1170802

>  <Active>  (4) 
1

>  <Smiles>  (4) 
CC(=O)n1cc(Nc2ccc(I)cc2F)c(C(=O)NOCCO)c1

>  <canonical_smi>  (4) 
CC(=O)n1cc(Nc2ccc(I)cc2F)c(C(=O)NOCCO)c1

>  <Set>  (4) 
G1 active

>  <Set_type>  (4) 
G1

>  <MW>  (4) 
447.2

>  <HBD>  (4) 
3

>  <HBA>  (4) 
5

>  <NRB>  (4) 
6

>  <NR>  (4) 
2

>  <NAR>  (4) 
2

>  <PSA>  (4) 
92.59

>  <Standard Type>  (4) 
nan

>  <Standard Relation>  (4) 
nan

>  <Standard Units>  (4) 
nan

>  <Standard Value>  (4) 
nan

>  <Assay ChEMBL ID>  (4) 
nan

>  <Assay Description>  (4) 
nan

>  <BAO Label>  (4) 
nan

>  <bits>  (4) 
<rdkit.DataStructs.cDataStructs.ExplicitBitVect object at 0x000002AD6E9969D0>

>  <Group>  (4) 
G2

$$$$

     RDKit          2D

 27 28  0  0  0  0  0  0  0  0999 V2000
   -3.6375   -5.2496    0.0000 C   0  0  0  0  0  0  0  0  0  0  0  0
   -2.4240   -6.1312    0.0000 C   0  0  0  0  0  0  0  0  0  0  0  0
   -2.5808   -7.6230    0.0000 O   0  0  0  0  0  0  0  0  0  0  0  0
   -1.0537   -5.5211    0.0000 C   0  0  0  0  0  0  0  0  0  0  0  0
    0.2454   -6.2711    0.0000 C   0  0  0  0  0  0  0  0  0  0  0  0
    1.3601   -5.2674    0.0000 C   0  0  0  0  0  0  0  0  0  0  0  0
    2.8273   -5.5793    0.0000 C   0  0  0  0  0  0  0  0  0  0  0  0
    3.8310   -4.4646    0.0000 O   0  0  0  0  0  0  0  0  0  0  0  0
    3.2909   -7.0059    0.0000 N   0  0  0  0  0  0  0  0  0  0  0  0
    4.7581   -7.3178    0.0000 O   0  0  0  0  0  0  0  0  0  0  0  0
    5.2216   -8.7443    0.0000 C   0  0  0  0  0  0  0  0  0  0  0  0
    6.6888   -9.0562    0.0000 C   0  0  0  0  0  0  0  0  0  0  0  0
    7.6925   -7.9415    0.0000 O   0  0  0  0  0  0  0  0  0  0  0  0
    7.1523  -10.4828    0.0000 C   0  0  0  0  0  0  0  0  0  0  0  0
    8.6196  -10.7947    0.0000 O   0  0  0  0  0  0  0  0  0  0  0  0
    0.7500   -3.8971    0.0000 C   0  0  0  0  0  0  0  0  0  0  0  0
    1.5000   -2.5981    0.0000 N   0  0  0  0  0  0  0  0  0  0  0  0
    0.7500   -1.2990    0.0000 C   0  0  0  0  0  0  0  0  0  0  0  0
   -0.7500   -1.2990    0.0000 C   0  0  0  0  0  0  0  0  0  0  0  0
   -1.5000   -0.0000    0.0000 C   0  0  0  0  0  0  0  0  0  0  0  0
   -0.7500    1.2990    0.0000 C   0  0  0  0  0  0  0  0  0  0  0  0
   -1.5000    2.5981    0.0000 I   0  0  0  0  0  0  0  0  0  0  0  0
    0.7500    1.2990    0.0000 C   0  0  0  0  0  0  0  0  0  0  0  0
    1.5000   -0.0000    0.0000 C   0  0  0  0  0  0  0  0  0  0  0  0
    3.0000    0.0000    0.0000 F   0  0  0  0  0  0  0  0  0  0  0  0
   -0.7418   -4.0539    0.0000 N   0  0  0  0  0  0  0  0  0  0  0  0
   -1.7455   -2.9392    0.0000 C   0  0  0  0  0  0  0  0  0  0  0  0
  1  2  1  0
  2  3  2  0
  2  4  1  0
  4  5  2  0
  5  6  1  0
  6  7  1  0
  7  8  2  0
  7  9  1  0
  9 10  1  0
 10 11  1  0
 11 12  1  0
 12 13  1  1
 12 14  1  0
 14 15  1  0
  6 16  2  0
 16 17  1  0
 17 18  1  0
 18 19  2  0
 19 20  1  0
 20 21  2  0
 21 22  1  0
 21 23  1  0
 23 24  2  0
 24 25  1  0
 16 26  1  0
 26 27  1  0
 26  4  1  0
 24 18  1  0
M  END
>  <Compound_ID>  (5) 
CHEMBL1170805

>  <Active>  (5) 
1

>  <Smiles>  (5) 
CC(=O)c1cc(C(=O)NOC[C@@H](O)CO)c(Nc2ccc(I)cc2F)n1C

>  <canonical_smi>  (5) 
CC(=O)c1cc(C(=O)NOC[C@@H](O)CO)c(Nc2ccc(I)cc2F)n1C

>  <Set>  (5) 
G1 active

>  <Set_type>  (5) 
G1

>  <MW>  (5) 
491.26

>  <HBD>  (5) 
4

>  <HBA>  (5) 
6

>  <NRB>  (5) 
8

>  <NR>  (5) 
2

>  <NAR>  (5) 
2

>  <PSA>  (5) 
112.82

>  <Standard Type>  (5) 
nan

>  <Standard Relation>  (5) 
nan

>  <Standard Units>  (5) 
nan

>  <Standard Value>  (5) 
nan

>  <Assay ChEMBL ID>  (5) 
nan

>  <Assay Description>  (5) 
nan

>  <BAO Label>  (5) 
nan

>  <bits>  (5) 
<rdkit.DataStructs.cDataStructs.ExplicitBitVect object at 0x000002AD6E996AB0>

>  <Group>  (5) 
G2

$$$$

     RDKit          2D

 27 29  0  0  0  0  0  0  0  0999 V2000
    2.2500   -6.4952    0.0000 N   0  0  0  0  0  0  0  0  0  0  0  0
    3.0000   -5.1962    0.0000 C   0  0  0  0  0  0  0  0  0  0  0  0
    3.7500   -3.8971    0.0000 C   0  0  0  0  0  0  0  0  0  0  0  0
    3.0000   -2.5981    0.0000 C   0  0  0  0  0  0  0  0  0  0  0  0
    3.7500   -1.2990    0.0000 N   0  0  0  0  0  0  0  0  0  0  0  0
    1.5000   -2.5981    0.0000 S   0  0  0  0  0  0  0  0  0  0  0  0
    0.7500   -1.2990    0.0000 C   0  0  0  0  0  0  0  0  0  0  0  0
    1.5000    0.0000    0.0000 C   0  0  0  0  0  0  0  0  0  0  0  0
    0.7500    1.2990    0.0000 C   0  0  0  0  0  0  0  0  0  0  0  0
   -0.7500    1.2990    0.0000 C   0  0  0  0  0  0  0  0  0  0  0  0
   -1.5000    0.0000    0.0000 C   0  0  0  0  0  0  0  0  0  0  0  0
   -0.7500   -1.2990    0.0000 C   0  0  0  0  0  0  0  0  0  0  0  0
   -1.5000   -2.5981    0.0000 N   0  0  0  0  0  0  0  0  0  0  0  0
    5.2500   -3.8971    0.0000 C   0  0  0  0  0  0  0  0  0  0  0  0
    6.0000   -5.1962    0.0000 C   0  0  0  0  0  0  0  0  0  0  0  0
    7.5000   -5.1962    0.0000 C   0  0  0  0  0  0  0  0  0  0  0  0
    8.2500   -3.8971    0.0000 C   0  0  0  0  0  0  0  0  0  0  0  0
    7.5000   -2.5981    0.0000 C   0  0  0  0  0  0  0  0  0  0  0  0
    8.2500   -1.2990    0.0000 C   0  0  0  0  0  0  0  0  0  0  0  0
    7.5000    0.0000    0.0000 O   0  0  0  0  0  0  0  0  0  0  0  0
    9.7500   -1.2990    0.0000 C   0  0  0  0  0  0  0  0  0  0  0  0
   10.5000   -2.5981    0.0000 C   0  0  0  0  0  0  0  0  0  0  0  0
   12.0000   -2.5981    0.0000 C   0  0  0  0  0  0  0  0  0  0  0  0
   12.7500   -1.2990    0.0000 N   0  0  0  0  0  0  0  0  0  0  0  0
   12.0000    0.0000    0.0000 C   0  0  0  0  0  0  0  0  0  0  0  0
   10.5000    0.0000    0.0000 C   0  0  0  0  0  0  0  0  0  0  0  0
    6.0000   -2.5981    0.0000 C   0  0  0  0  0  0  0  0  0  0  0  0
  1  2  3  0
  2  3  1  0
  3  4  2  0
  4  5  1  0
  4  6  1  0
  6  7  1  0
  7  8  2  0
  8  9  1  0
  9 10  2  0
 10 11  1  0
 11 12  2  0
 12 13  1  0
  3 14  1  0
 14 15  2  0
 15 16  1  0
 16 17  2  0
 17 18  1  0
 18 19  1  0
 19 20  1  0
 19 21  1  0
 21 22  2  0
 22 23  1  0
 23 24  2  0
 24 25  1  0
 25 26  2  0
 18 27  2  0
 12  7  1  0
 27 14  1  0
 26 21  1  0
M  END
>  <Compound_ID>  (6) 
CHEMBL37493

>  <Active>  (6) 
1

>  <Smiles>  (6) 
N#C/C(=C(/N)Sc1ccccc1N)c1cccc(C(O)c2ccncc2)c1

>  <canonical_smi>  (6) 
N#C/C(=C(/N)Sc1ccccc1N)c1cccc(C(O)c2ccncc2)c1

>  <Set>  (6) 
G1 active

>  <Set_type>  (6) 
G1

>  <MW>  (6) 
374.47

>  <HBD>  (6) 
3

>  <HBA>  (6) 
6

>  <NRB>  (6) 
5

>  <NR>  (6) 
3

>  <NAR>  (6) 
3

>  <PSA>  (6) 
108.95

>  <Standard Type>  (6) 
nan

>  <Standard Relation>  (6) 
nan

>  <Standard Units>  (6) 
nan

>  <Standard Value>  (6) 
nan

>  <Assay ChEMBL ID>  (6) 
nan

>  <Assay Description>  (6) 
nan

>  <BAO Label>  (6) 
nan

>  <bits>  (6) 
<rdkit.DataStructs.cDataStructs.ExplicitBitVect object at 0x000002AD6E996B20>

>  <Group>  (6) 
G2

$$$$

     RDKit          2D

 26 28  0  0  0  0  0  0  0  0999 V2000
   -3.6375   -5.2496    0.0000 C   0  0  0  0  0  0  0  0  0  0  0  0
   -2.4240   -6.1312    0.0000 C   0  0  0  0  0  0  0  0  0  0  0  0
   -2.5808   -7.6230    0.0000 O   0  0  0  0  0  0  0  0  0  0  0  0
   -1.0537   -5.5211    0.0000 C   0  0  0  0  0  0  0  0  0  0  0  0
    0.2454   -6.2711    0.0000 C   0  0  0  0  0  0  0  0  0  0  0  0
    1.3601   -5.2674    0.0000 C   0  0  0  0  0  0  0  0  0  0  0  0
    2.8273   -5.5793    0.0000 C   0  0  0  0  0  0  0  0  0  0  0  0
    3.8310   -4.4646    0.0000 O   0  0  0  0  0  0  0  0  0  0  0  0
    3.2909   -7.0059    0.0000 N   0  0  0  0  0  0  0  0  0  0  0  0
    4.7174   -7.4694    0.0000 C   0  0  0  0  0  0  0  0  0  0  0  0
    4.7174   -8.9694    0.0000 C   0  0  0  0  0  0  0  0  0  0  0  0
    3.2909   -9.4329    0.0000 C   0  0  0  0  0  0  0  0  0  0  0  0
    2.8273  -10.8595    0.0000 O   0  0  0  0  0  0  0  0  0  0  0  0
    2.4092   -8.2194    0.0000 C   0  0  0  0  0  0  0  0  0  0  0  0
    0.7500   -3.8971    0.0000 C   0  0  0  0  0  0  0  0  0  0  0  0
    1.5000   -2.5981    0.0000 N   0  0  0  0  0  0  0  0  0  0  0  0
    0.7500   -1.2990    0.0000 C   0  0  0  0  0  0  0  0  0  0  0  0
   -0.7500   -1.2990    0.0000 C   0  0  0  0  0  0  0  0  0  0  0  0
   -1.5000   -0.0000    0.0000 C   0  0  0  0  0  0  0  0  0  0  0  0
   -0.7500    1.2990    0.0000 C   0  0  0  0  0  0  0  0  0  0  0  0
   -1.5000    2.5981    0.0000 I   0  0  0  0  0  0  0  0  0  0  0  0
    0.7500    1.2990    0.0000 C   0  0  0  0  0  0  0  0  0  0  0  0
    1.5000   -0.0000    0.0000 C   0  0  0  0  0  0  0  0  0  0  0  0
    3.0000    0.0000    0.0000 F   0  0  0  0  0  0  0  0  0  0  0  0
   -0.7418   -4.0539    0.0000 N   0  0  0  0  0  0  0  0  0  0  0  0
   -1.7455   -2.9392    0.0000 C   0  0  0  0  0  0  0  0  0  0  0  0
  1  2  1  0
  2  3  2  0
  2  4  1  0
  4  5  2  0
  5  6  1  0
  6  7  1  0
  7  8  2  0
  7  9  1  0
  9 10  1  0
 10 11  1  0
 11 12  1  0
 12 13  1  1
 12 14  1  0
  6 15  2  0
 15 16  1  0
 16 17  1  0
 17 18  2  0
 18 19  1  0
 19 20  2  0
 20 21  1  0
 20 22  1  0
 22 23  2  0
 23 24  1  0
 15 25  1  0
 25 26  1  0
 25  4  1  0
 14  9  1  0
 23 17  1  0
M  END
>  <Compound_ID>  (7) 
CHEMBL1169631

>  <Active>  (7) 
1

>  <Smiles>  (7) 
CC(=O)c1cc(C(=O)N2CC[C@@H](O)C2)c(Nc2ccc(I)cc2F)n1C

>  <canonical_smi>  (7) 
CC(=O)c1cc(C(=O)N2CC[C@@H](O)C2)c(Nc2ccc(I)cc2F)n1C

>  <Set>  (7) 
G1 active

>  <Set_type>  (7) 
G1

>  <MW>  (7) 
471.27

>  <HBD>  (7) 
2

>  <HBA>  (7) 
4

>  <NRB>  (7) 
4

>  <NR>  (7) 
3

>  <NAR>  (7) 
2

>  <PSA>  (7) 
74.57

>  <Standard Type>  (7) 
nan

>  <Standard Relation>  (7) 
nan

>  <Standard Units>  (7) 
nan

>  <Standard Value>  (7) 
nan

>  <Assay ChEMBL ID>  (7) 
nan

>  <Assay Description>  (7) 
nan

>  <BAO Label>  (7) 
nan

>  <bits>  (7) 
<rdkit.DataStructs.cDataStructs.ExplicitBitVect object at 0x000002AD6E996C00>

>  <Group>  (7) 
G2

$$$$

     RDKit          2D

 29 31  0  0  0  0  0  0  0  0999 V2000
    5.2216   -8.7443    0.0000 C   0  0  0  0  0  0  0  0  0  0  0  0
    4.7581   -7.3178    0.0000 C   0  0  0  0  0  0  0  0  0  0  0  0
    5.7618   -6.2030    0.0000 C   0  0  0  0  0  0  0  0  0  0  0  0
    7.2290   -6.5149    0.0000 O   0  0  0  0  0  0  0  0  0  0  0  0
    3.2909   -7.0059    0.0000 N   0  0  0  0  0  0  0  0  0  0  0  0
    2.8273   -5.5793    0.0000 C   0  0  0  0  0  0  0  0  0  0  0  0
    3.8310   -4.4646    0.0000 N   0  0  0  0  0  0  0  0  0  0  0  0
    1.3601   -5.2674    0.0000 C   0  0  0  0  0  0  0  0  0  0  0  0
    0.2454   -6.2711    0.0000 C   0  0  0  0  0  0  0  0  0  0  0  0
    0.4022   -7.7629    0.0000 O   0  0  0  0  0  0  0  0  0  0  0  0
   -1.0537   -5.5211    0.0000 N   0  0  0  0  0  0  0  0  0  0  0  0
   -0.7418   -4.0539    0.0000 S   0  0  0  0  0  0  0  0  0  0  0  0
    0.7500   -3.8971    0.0000 C   0  0  0  0  0  0  0  0  0  0  0  0
    1.5000   -2.5981    0.0000 N   0  0  0  0  0  0  0  0  0  0  0  0
    0.7500   -1.2990    0.0000 C   0  0  0  0  0  0  0  0  0  0  0  0
    1.5000    0.0000    0.0000 C   0  0  0  0  0  0  0  0  0  0  0  0
    0.7500    1.2990    0.0000 C   0  0  0  0  0  0  0  0  0  0  0  0
   -0.7500    1.2990    0.0000 C   0  0  0  0  0  0  0  0  0  0  0  0
   -1.5000    2.5981    0.0000 O   0  0  0  0  0  0  0  0  0  0  0  0
   -0.7500    3.8971    0.0000 C   0  0  0  0  0  0  0  0  0  0  0  0
    0.7500    3.8971    0.0000 C   0  0  0  0  0  0  0  0  0  0  0  0
    1.5000    5.1962    0.0000 C   0  0  0  0  0  0  0  0  0  0  0  0
    0.7500    6.4952    0.0000 C   0  0  0  0  0  0  0  0  0  0  0  0
   -0.7500    6.4952    0.0000 C   0  0  0  0  0  0  0  0  0  0  0  0
   -1.5000    7.7942    0.0000 F   0  0  0  0  0  0  0  0  0  0  0  0
   -1.5000    5.1962    0.0000 C   0  0  0  0  0  0  0  0  0  0  0  0
   -3.0000    5.1962    0.0000 F   0  0  0  0  0  0  0  0  0  0  0  0
   -1.5000    0.0000    0.0000 C   0  0  0  0  0  0  0  0  0  0  0  0
   -0.7500   -1.2990    0.0000 C   0  0  0  0  0  0  0  0  0  0  0  0
  1  2  1  0
  2  3  1  0
  3  4  1  0
  2  5  1  0
  5  6  2  0
  6  7  1  0
  6  8  1  0
  8  9  1  0
  9 10  1  0
  9 11  2  0
 11 12  1  0
 12 13  1  0
 13 14  1  0
 14 15  1  0
 15 16  2  0
 16 17  1  0
 17 18  2  0
 18 19  1  0
 19 20  1  0
 20 21  2  0
 21 22  1  0
 22 23  2  0
 23 24  1  0
 24 25  1  0
 24 26  2  0
 26 27  1  0
 18 28  1  0
 28 29  2  0
 13  8  2  0
 29 15  1  0
 26 20  1  0
M  END
>  <Compound_ID>  (8) 
CHEMBL214613

>  <Active>  (8) 
1

>  <Smiles>  (8) 
CC(CO)/N=C(\N)c1c(O)nsc1Nc1ccc(Oc2cccc(F)c2F)cc1

>  <canonical_smi>  (8) 
CC(CO)/N=C(\N)c1c(O)nsc1Nc1ccc(Oc2cccc(F)c2F)cc1

>  <Set>  (8) 
G1 active

>  <Set_type>  (8) 
G1

>  <MW>  (8) 
420.44

>  <HBD>  (8) 
4

>  <HBA>  (8) 
6

>  <NRB>  (8) 
7

>  <NR>  (8) 
3

>  <NAR>  (8) 
3

>  <PSA>  (8) 
112.99

>  <Standard Type>  (8) 
nan

>  <Standard Relation>  (8) 
nan

>  <Standard Units>  (8) 
nan

>  <Standard Value>  (8) 
nan

>  <Assay ChEMBL ID>  (8) 
nan

>  <Assay Description>  (8) 
nan

>  <BAO Label>  (8) 
nan

>  <bits>  (8) 
<rdkit.DataStructs.cDataStructs.ExplicitBitVect object at 0x000002AD6E996DC0>

>  <Group>  (8) 
G2

$$$$

     RDKit          2D

 22 23  0  0  0  0  0  0  0  0999 V2000
   -5.6836   -2.4482    0.0000 C   0  0  0  0  0  0  0  0  0  0  0  0
   -4.2164   -2.1363    0.0000 C   0  0  0  0  0  0  0  0  0  0  0  0
   -3.7529   -0.7098    0.0000 C   0  0  0  0  0  0  0  0  0  0  0  0
   -4.7566    0.4050    0.0000 O   0  0  0  0  0  0  0  0  0  0  0  0
   -3.2127   -3.2511    0.0000 N   0  0  0  0  0  0  0  0  0  0  0  0
   -1.7455   -2.9392    0.0000 C   0  0  0  0  0  0  0  0  0  0  0  0
   -1.2820   -1.5126    0.0000 N   0  0  0  0  0  0  0  0  0  0  0  0
   -0.7418   -4.0539    0.0000 C   0  0  0  0  0  0  0  0  0  0  0  0
   -1.0537   -5.5211    0.0000 C   0  0  0  0  0  0  0  0  0  0  0  0
   -2.4240   -6.1312    0.0000 O   0  0  0  0  0  0  0  0  0  0  0  0
    0.2454   -6.2711    0.0000 N   0  0  0  0  0  0  0  0  0  0  0  0
    1.3601   -5.2674    0.0000 S   0  0  0  0  0  0  0  0  0  0  0  0
    0.7500   -3.8971    0.0000 C   0  0  0  0  0  0  0  0  0  0  0  0
    1.5000   -2.5981    0.0000 N   0  0  0  0  0  0  0  0  0  0  0  0
    3.0000   -2.5981    0.0000 C   0  0  0  0  0  0  0  0  0  0  0  0
    3.7500   -3.8971    0.0000 C   0  0  0  0  0  0  0  0  0  0  0  0
    5.2500   -3.8971    0.0000 C   0  0  0  0  0  0  0  0  0  0  0  0
    6.0000   -2.5981    0.0000 C   0  0  0  0  0  0  0  0  0  0  0  0
    5.2500   -1.2990    0.0000 C   0  0  0  0  0  0  0  0  0  0  0  0
    6.0000   -0.0000    0.0000 Cl  0  0  0  0  0  0  0  0  0  0  0  0
    3.7500   -1.2990    0.0000 C   0  0  0  0  0  0  0  0  0  0  0  0
    3.0000   -0.0000    0.0000 Cl  0  0  0  0  0  0  0  0  0  0  0  0
  1  2  1  0
  2  3  1  0
  3  4  1  0
  2  5  1  0
  5  6  2  0
  6  7  1  0
  6  8  1  0
  8  9  1  0
  9 10  1  0
  9 11  2  0
 11 12  1  0
 12 13  1  0
 13 14  1  0
 14 15  1  0
 15 16  2  0
 16 17  1  0
 17 18  2  0
 18 19  1  0
 19 20  1  0
 19 21  2  0
 21 22  1  0
 13  8  2  0
 21 15  1  0
M  END
>  <Compound_ID>  (9) 
CHEMBL375609

>  <Active>  (9) 
1

>  <Smiles>  (9) 
CC(CO)/N=C(\N)c1c(O)nsc1Nc1cccc(Cl)c1Cl

>  <canonical_smi>  (9) 
CC(CO)/N=C(\N)c1c(O)nsc1Nc1cccc(Cl)c1Cl

>  <Set>  (9) 
G1 active

>  <Set_type>  (9) 
G1

>  <MW>  (9) 
361.25

>  <HBD>  (9) 
4

>  <HBA>  (9) 
5

>  <NRB>  (9) 
5

>  <NR>  (9) 
2

>  <NAR>  (9) 
2

>  <PSA>  (9) 
103.76

>  <Standard Type>  (9) 
nan

>  <Standard Relation>  (9) 
nan

>  <Standard Units>  (9) 
nan

>  <Standard Value>  (9) 
nan

>  <Assay ChEMBL ID>  (9) 
nan

>  <Assay Description>  (9) 
nan

>  <BAO Label>  (9) 
nan

>  <bits>  (9) 
<rdkit.DataStructs.cDataStructs.ExplicitBitVect object at 0x000002AD6E9973E0>

>  <Group>  (9) 
G2

$$$$

     RDKit          2D

 37 42  0  0  0  0  0  0  0  0999 V2000
    3.7500   -1.2990    0.0000 C   0  0  0  0  0  0  0  0  0  0  0  0
    3.0000   -2.5981    0.0000 C   0  0  0  0  0  0  0  0  0  0  0  0
    3.7500   -3.8971    0.0000 C   0  0  0  0  0  0  0  0  0  0  0  0
    3.0000   -5.1962    0.0000 C   0  0  0  0  0  0  0  0  0  0  0  0
    1.5000   -5.1962    0.0000 C   0  0  0  0  0  0  0  0  0  0  0  0
    0.7500   -6.4952    0.0000 C   0  0  0  0  0  0  0  0  0  0  0  0
    1.5000   -7.7942    0.0000 O   0  0  0  0  0  0  0  0  0  0  0  0
   -0.7500   -6.4952    0.0000 N   0  0  0  0  0  0  0  0  0  0  0  0
   -1.5000   -7.7942    0.0000 C   0  0  0  0  0  0  0  0  0  0  0  0
   -3.0000   -7.7942    0.0000 C   0  0  0  0  0  0  0  0  0  0  0  0
   -3.7500   -9.0933    0.0000 C   0  0  0  0  0  0  0  0  0  0  0  0
   -3.0000  -10.3923    0.0000 C   0  0  0  0  0  0  0  0  0  0  0  0
   -1.5000  -10.3923    0.0000 C   0  0  0  0  0  0  0  0  0  0  0  0
   -0.7500  -11.6913    0.0000 N   0  0  0  0  0  0  0  0  0  0  0  0
   -1.5000  -12.9904    0.0000 C   0  0  0  0  0  0  0  0  0  0  0  0
   -0.7500  -14.2894    0.0000 C   0  0  0  0  0  0  0  0  0  0  0  0
    0.7500  -14.2894    0.0000 O   0  0  0  0  0  0  0  0  0  0  0  0
    1.5000  -12.9904    0.0000 C   0  0  0  0  0  0  0  0  0  0  0  0
    0.7500  -11.6913    0.0000 C   0  0  0  0  0  0  0  0  0  0  0  0
   -0.7500   -9.0933    0.0000 C   0  0  0  0  0  0  0  0  0  0  0  0
    0.7500   -3.8971    0.0000 C   0  0  0  0  0  0  0  0  0  0  0  0
    1.5000   -2.5981    0.0000 C   0  0  0  0  0  0  0  0  0  0  0  0
    0.7500   -1.2990    0.0000 C   0  0  0  0  0  0  0  0  0  0  0  0
    1.5000    0.0000    0.0000 C   0  0  0  0  0  0  0  0  0  0  0  0
    0.7500    1.2990    0.0000 C   0  0  0  0  0  0  0  0  0  0  0  0
   -0.7500    1.2990    0.0000 C   0  0  0  0  0  0  0  0  0  0  0  0
   -1.7537    2.4138    0.0000 C   0  0  0  0  0  0  0  0  0  0  0  0
   -1.4418    3.8810    0.0000 C   0  0  0  0  0  0  0  0  0  0  0  0
   -0.0152    4.3445    0.0000 C   0  0  0  0  0  0  0  0  0  0  0  0
    0.2966    5.8117    0.0000 C   0  0  0  0  0  0  0  0  0  0  0  0
   -0.8181    6.8154    0.0000 N   0  0  0  0  0  0  0  0  0  0  0  0
   -2.2447    6.3519    0.0000 C   0  0  0  0  0  0  0  0  0  0  0  0
   -2.5565    4.8847    0.0000 C   0  0  0  0  0  0  0  0  0  0  0  0
   -3.1240    1.8037    0.0000 N   0  0  0  0  0  0  0  0  0  0  0  0
   -2.9672    0.3119    0.0000 O   0  0  0  0  0  0  0  0  0  0  0  0
   -1.5000    0.0000    0.0000 C   0  0  0  0  0  0  0  0  0  0  0  0
   -0.7500   -1.2990    0.0000 C   0  0  0  0  0  0  0  0  0  0  0  0
  1  2  1  0
  2  3  2  0
  3  4  1  0
  4  5  2  0
  5  6  1  0
  6  7  2  0
  6  8  1  0
  8  9  1  0
  9 10  2  0
 10 11  1  0
 11 12  2  0
 12 13  1  0
 13 14  1  0
 14 15  1  0
 15 16  1  0
 16 17  1  0
 17 18  1  0
 18 19  1  0
 13 20  2  0
  5 21  1  0
 21 22  2  0
 22 23  1  0
 23 24  2  0
 24 25  1  0
 25 26  2  0
 26 27  1  0
 27 28  1  0
 28 29  1  0
 29 30  1  0
 30 31  1  0
 31 32  1  0
 32 33  1  0
 27 34  2  0
 34 35  1  0
 35 36  1  0
 36 37  2  0
 22  2  1  0
 37 23  1  0
 20  9  1  0
 36 26  1  0
 19 14  1  0
 33 28  1  0
M  END
>  <Compound_ID>  (10) 
CHEMBL485285

>  <Active>  (10) 
1

>  <Smiles>  (10) 
Cc1ccc(C(=O)Nc2cccc(N3CCOCC3)c2)cc1-c1ccc2c(C3CCNCC3)noc2c1

>  <canonical_smi>  (10) 
Cc1ccc(C(=O)Nc2cccc(N3CCOCC3)c2)cc1-c1ccc2c(C3CCNCC3)noc2c1

>  <Set>  (10) 
G1 active

>  <Set_type>  (10) 
G1

>  <MW>  (10) 
496.61

>  <HBD>  (10) 
2

>  <HBA>  (10) 
6

>  <NRB>  (10) 
5

>  <NR>  (10) 
6

>  <NAR>  (10) 
4

>  <PSA>  (10) 
79.63

>  <Standard Type>  (10) 
nan

>  <Standard Relation>  (10) 
nan

>  <Standard Units>  (10) 
nan

>  <Standard Value>  (10) 
nan

>  <Assay ChEMBL ID>  (10) 
nan

>  <Assay Description>  (10) 
nan

>  <BAO Label>  (10) 
nan

>  <bits>  (10) 
<rdkit.DataStructs.cDataStructs.ExplicitBitVect object at 0x000002AD6E9974C0>

>  <Group>  (10) 
G2

$$$$

     RDKit          2D

 29 31  0  0  0  0  0  0  0  0999 V2000
  -12.9041   -9.3825    0.0000 C   0  0  0  0  0  0  0  0  0  0  0  0
  -11.7894   -8.3788    0.0000 C   0  0  0  0  0  0  0  0  0  0  0  0
  -10.3628   -8.8423    0.0000 N   0  0  0  0  0  0  0  0  0  0  0  0
  -10.0510  -10.3095    0.0000 C   0  0  0  0  0  0  0  0  0  0  0  0
  -11.1657  -11.3132    0.0000 C   0  0  0  0  0  0  0  0  0  0  0  0
   -9.2481   -7.8386    0.0000 C   0  0  0  0  0  0  0  0  0  0  0  0
   -7.8215   -8.3021    0.0000 C   0  0  0  0  0  0  0  0  0  0  0  0
   -6.7068   -7.2984    0.0000 N   0  0  0  0  0  0  0  0  0  0  0  0
   -5.2802   -7.7620    0.0000 C   0  0  0  0  0  0  0  0  0  0  0  0
   -4.9684   -9.2292    0.0000 O   0  0  0  0  0  0  0  0  0  0  0  0
   -4.1655   -6.7583    0.0000 C   0  0  0  0  0  0  0  0  0  0  0  0
   -2.6983   -7.0701    0.0000 C   0  0  0  0  0  0  0  0  0  0  0  0
   -2.0882   -8.4404    0.0000 C   0  0  0  0  0  0  0  0  0  0  0  0
   -1.9483   -5.7711    0.0000 N   0  0  0  0  0  0  0  0  0  0  0  0
   -2.9520   -4.6564    0.0000 C   0  0  0  0  0  0  0  0  0  0  0  0
   -2.6401   -3.1891    0.0000 C   0  0  0  0  0  0  0  0  0  0  0  0
   -1.2135   -2.7256    0.0000 C   0  0  0  0  0  0  0  0  0  0  0  0
   -0.0000   -3.6073    0.0000 C   0  0  0  0  0  0  0  0  0  0  0  0
    0.0000   -5.1073    0.0000 O   0  0  0  0  0  0  0  0  0  0  0  0
    1.2135   -2.7256    0.0000 N   0  0  0  0  0  0  0  0  0  0  0  0
    0.7500   -1.2990    0.0000 C   0  0  0  0  0  0  0  0  0  0  0  0
    1.5000    0.0000    0.0000 C   0  0  0  0  0  0  0  0  0  0  0  0
    0.7500    1.2990    0.0000 C   0  0  0  0  0  0  0  0  0  0  0  0
   -0.7500    1.2990    0.0000 C   0  0  0  0  0  0  0  0  0  0  0  0
   -1.5000    2.5981    0.0000 F   0  0  0  0  0  0  0  0  0  0  0  0
   -1.5000    0.0000    0.0000 C   0  0  0  0  0  0  0  0  0  0  0  0
   -0.7500   -1.2990    0.0000 C   0  0  0  0  0  0  0  0  0  0  0  0
   -4.3223   -5.2665    0.0000 C   0  0  0  0  0  0  0  0  0  0  0  0
   -5.6213   -4.5165    0.0000 C   0  0  0  0  0  0  0  0  0  0  0  0
  1  2  1  0
  2  3  1  0
  3  4  1  0
  4  5  1  0
  3  6  1  0
  6  7  1  0
  7  8  1  0
  8  9  1  0
  9 10  2  0
  9 11  1  0
 11 12  2  0
 12 13  1  0
 12 14  1  0
 14 15  1  0
 15 16  1  0
 16 17  2  0
 17 18  1  0
 18 19  2  0
 18 20  1  0
 20 21  1  0
 21 22  2  0
 22 23  1  0
 23 24  2  0
 24 25  1  0
 24 26  1  0
 26 27  2  0
 15 28  2  0
 28 29  1  0
 28 11  1  0
 27 17  1  0
 27 21  1  0
M  END
>  <Compound_ID>  (11) 
CHEMBL535

>  <Active>  (11) 
1

>  <Smiles>  (11) 
CCN(CC)CCNC(=O)c1c(C)[nH]c(/C=C2\C(=O)Nc3ccc(F)cc32)c1C

>  <canonical_smi>  (11) 
CCN(CC)CCNC(=O)c1c(C)[nH]c(/C=C2\C(=O)Nc3ccc(F)cc32)c1C

>  <Set>  (11) 
G1 active

>  <Set_type>  (11) 
G1

>  <MW>  (11) 
398.48

>  <HBD>  (11) 
3

>  <HBA>  (11) 
3

>  <NRB>  (11) 
7

>  <NR>  (11) 
3

>  <NAR>  (11) 
2

>  <PSA>  (11) 
77.23

>  <Standard Type>  (11) 
nan

>  <Standard Relation>  (11) 
nan

>  <Standard Units>  (11) 
nan

>  <Standard Value>  (11) 
nan

>  <Assay ChEMBL ID>  (11) 
nan

>  <Assay Description>  (11) 
nan

>  <BAO Label>  (11) 
nan

>  <bits>  (11) 
<rdkit.DataStructs.cDataStructs.ExplicitBitVect object at 0x000002AD6E9975A0>

>  <Group>  (11) 
G2

$$$$

     RDKit          2D

 29 31  0  0  0  0  0  0  0  0999 V2000
    5.2216   -8.7443    0.0000 C   0  0  0  0  0  0  0  0  0  0  0  0
    4.7581   -7.3178    0.0000 C   0  0  0  0  0  0  0  0  0  0  0  0
    5.7618   -6.2030    0.0000 C   0  0  0  0  0  0  0  0  0  0  0  0
    7.2290   -6.5149    0.0000 O   0  0  0  0  0  0  0  0  0  0  0  0
    3.2909   -7.0059    0.0000 N   0  0  0  0  0  0  0  0  0  0  0  0
    2.8273   -5.5793    0.0000 C   0  0  0  0  0  0  0  0  0  0  0  0
    3.8310   -4.4646    0.0000 N   0  0  0  0  0  0  0  0  0  0  0  0
    1.3601   -5.2674    0.0000 C   0  0  0  0  0  0  0  0  0  0  0  0
    0.2454   -6.2711    0.0000 C   0  0  0  0  0  0  0  0  0  0  0  0
    0.4022   -7.7629    0.0000 O   0  0  0  0  0  0  0  0  0  0  0  0
   -1.0537   -5.5211    0.0000 N   0  0  0  0  0  0  0  0  0  0  0  0
   -0.7418   -4.0539    0.0000 S   0  0  0  0  0  0  0  0  0  0  0  0
    0.7500   -3.8971    0.0000 C   0  0  0  0  0  0  0  0  0  0  0  0
    1.5000   -2.5981    0.0000 N   0  0  0  0  0  0  0  0  0  0  0  0
    0.7500   -1.2990    0.0000 C   0  0  0  0  0  0  0  0  0  0  0  0
    1.5000    0.0000    0.0000 C   0  0  0  0  0  0  0  0  0  0  0  0
    0.7500    1.2990    0.0000 C   0  0  0  0  0  0  0  0  0  0  0  0
   -0.7500    1.2990    0.0000 C   0  0  0  0  0  0  0  0  0  0  0  0
   -1.5000    2.5981    0.0000 S   0  0  0  0  0  0  0  0  0  0  0  0
   -2.7990    1.8481    0.0000 O   0  0  0  0  0  0  0  0  0  0  0  0
   -0.2010    3.3481    0.0000 O   0  0  0  0  0  0  0  0  0  0  0  0
   -2.2500    3.8971    0.0000 C   0  0  0  0  0  0  0  0  0  0  0  0
   -1.5000    5.1962    0.0000 C   0  0  0  0  0  0  0  0  0  0  0  0
   -2.2500    6.4952    0.0000 C   0  0  0  0  0  0  0  0  0  0  0  0
   -3.7500    6.4952    0.0000 C   0  0  0  0  0  0  0  0  0  0  0  0
   -4.5000    5.1962    0.0000 C   0  0  0  0  0  0  0  0  0  0  0  0
   -3.7500    3.8971    0.0000 C   0  0  0  0  0  0  0  0  0  0  0  0
   -1.5000    0.0000    0.0000 C   0  0  0  0  0  0  0  0  0  0  0  0
   -0.7500   -1.2990    0.0000 C   0  0  0  0  0  0  0  0  0  0  0  0
  1  2  1  0
  2  3  1  0
  3  4  1  0
  2  5  1  0
  5  6  2  0
  6  7  1  0
  6  8  1  0
  8  9  1  0
  9 10  1  0
  9 11  2  0
 11 12  1  0
 12 13  1  0
 13 14  1  0
 14 15  1  0
 15 16  2  0
 16 17  1  0
 17 18  2  0
 18 19  1  0
 19 20  2  0
 19 21  2  0
 19 22  1  0
 22 23  2  0
 23 24  1  0
 24 25  2  0
 25 26  1  0
 26 27  2  0
 18 28  1  0
 28 29  2  0
 13  8  2  0
 29 15  1  0
 27 22  1  0
M  END
>  <Compound_ID>  (12) 
CHEMBL217117

>  <Active>  (12) 
1

>  <Smiles>  (12) 
CC(CO)/N=C(\N)c1c(O)nsc1Nc1ccc(S(=O)(=O)c2ccccc2)cc1

>  <canonical_smi>  (12) 
CC(CO)/N=C(\N)c1c(O)nsc1Nc1ccc(S(=O)(=O)c2ccccc2)cc1

>  <Set>  (12) 
G1 active

>  <Set_type>  (12) 
G1

>  <MW>  (12) 
432.53

>  <HBD>  (12) 
4

>  <HBA>  (12) 
7

>  <NRB>  (12) 
7

>  <NR>  (12) 
3

>  <NAR>  (12) 
3

>  <PSA>  (12) 
137.9

>  <Standard Type>  (12) 
nan

>  <Standard Relation>  (12) 
nan

>  <Standard Units>  (12) 
nan

>  <Standard Value>  (12) 
nan

>  <Assay ChEMBL ID>  (12) 
nan

>  <Assay Description>  (12) 
nan

>  <BAO Label>  (12) 
nan

>  <bits>  (12) 
<rdkit.DataStructs.cDataStructs.ExplicitBitVect object at 0x000002AD6E997610>

>  <Group>  (12) 
G2

$$$$

     RDKit          2D

 34 38  0  0  0  0  0  0  0  0999 V2000
    1.8478   -6.4639    0.0000 C   0  0  0  0  0  0  0  0  0  0  0  0
    2.0046   -4.9721    0.0000 C   0  0  0  0  0  0  0  0  0  0  0  0
    3.3037   -4.2221    0.0000 N   0  0  0  0  0  0  0  0  0  0  0  0
    2.9918   -2.7549    0.0000 N   0  0  0  0  0  0  0  0  0  0  0  0
    1.5000   -2.5981    0.0000 C   0  0  0  0  0  0  0  0  0  0  0  0
    0.7500   -1.2990    0.0000 C   0  0  0  0  0  0  0  0  0  0  0  0
    1.5000    0.0000    0.0000 C   0  0  0  0  0  0  0  0  0  0  0  0
    0.7500    1.2990    0.0000 C   0  0  0  0  0  0  0  0  0  0  0  0
   -0.7500    1.2990    0.0000 C   0  0  0  0  0  0  0  0  0  0  0  0
   -1.5000    2.5981    0.0000 C   0  0  0  0  0  0  0  0  0  0  0  0
   -0.7500    3.8971    0.0000 C   0  0  0  0  0  0  0  0  0  0  0  0
   -1.5000    5.1962    0.0000 C   0  0  0  0  0  0  0  0  0  0  0  0
   -0.7500    6.4952    0.0000 N   0  0  0  0  0  0  0  0  0  0  0  0
    0.7500    6.4952    0.0000 C   0  0  0  0  0  0  0  0  0  0  0  0
    1.5000    5.1962    0.0000 O   0  0  0  0  0  0  0  0  0  0  0  0
    1.5000    7.7942    0.0000 C   0  0  0  0  0  0  0  0  0  0  0  0
    3.0000    7.7942    0.0000 C   0  0  0  0  0  0  0  0  0  0  0  0
    3.7500    9.0933    0.0000 C   0  0  0  0  0  0  0  0  0  0  0  0
    3.0000   10.3923    0.0000 N   0  0  0  0  0  0  0  0  0  0  0  0
    1.5000   10.3923    0.0000 C   0  0  0  0  0  0  0  0  0  0  0  0
    0.7500   11.6913    0.0000 N   0  0  0  0  0  0  0  0  0  0  0  0
   -0.7418   11.8481    0.0000 C   0  0  0  0  0  0  0  0  0  0  0  0
   -1.0537   13.3154    0.0000 C   0  0  0  0  0  0  0  0  0  0  0  0
    0.2454   14.0654    0.0000 C   0  0  0  0  0  0  0  0  0  0  0  0
    1.3601   13.0617    0.0000 C   0  0  0  0  0  0  0  0  0  0  0  0
    0.7500    9.0933    0.0000 C   0  0  0  0  0  0  0  0  0  0  0  0
   -3.0000    5.1962    0.0000 C   0  0  0  0  0  0  0  0  0  0  0  0
   -3.7500    3.8971    0.0000 C   0  0  0  0  0  0  0  0  0  0  0  0
   -3.0000    2.5981    0.0000 C   0  0  0  0  0  0  0  0  0  0  0  0
   -3.7500    1.2990    0.0000 C   0  0  0  0  0  0  0  0  0  0  0  0
   -1.5000    0.0000    0.0000 C   0  0  0  0  0  0  0  0  0  0  0  0
   -3.0000    0.0000    0.0000 C   0  0  0  0  0  0  0  0  0  0  0  0
   -0.7500   -1.2990    0.0000 C   0  0  0  0  0  0  0  0  0  0  0  0
    0.8899   -3.9684    0.0000 O   0  0  0  0  0  0  0  0  0  0  0  0
  1  2  1  0
  2  3  2  0
  3  4  1  0
  4  5  2  0
  5  6  1  0
  6  7  2  0
  7  8  1  0
  8  9  2  0
  9 10  1  0
 10 11  2  0
 11 12  1  0
 12 13  1  0
 13 14  1  0
 14 15  2  0
 14 16  1  0
 16 17  2  0
 17 18  1  0
 18 19  2  0
 19 20  1  0
 20 21  1  0
 21 22  1  0
 22 23  1  0
 23 24  1  0
 24 25  1  0
 20 26  2  0
 12 27  2  0
 27 28  1  0
 28 29  2  0
 29 30  1  0
  9 31  1  0
 31 32  1  0
 31 33  2  0
  5 34  1  0
 34  2  1  0
 33  6  1  0
 29 10  1  0
 26 16  1  0
 25 21  1  0
M  END
>  <Compound_ID>  (13) 
CHEMBL495729

>  <Active>  (13) 
1

>  <Smiles>  (13) 
Cc1nnc(-c2ccc(-c3cc(NC(=O)c4ccnc(N5CCCC5)c4)ccc3C)c(C)c2)o1

>  <canonical_smi>  (13) 
Cc1nnc(-c2ccc(-c3cc(NC(=O)c4ccnc(N5CCCC5)c4)ccc3C)c(C)c2)o1

>  <Set>  (13) 
G1 active

>  <Set_type>  (13) 
G1

>  <MW>  (13) 
453.55

>  <HBD>  (13) 
1

>  <HBA>  (13) 
6

>  <NRB>  (13) 
5

>  <NR>  (13) 
5

>  <NAR>  (13) 
4

>  <PSA>  (13) 
84.15

>  <Standard Type>  (13) 
nan

>  <Standard Relation>  (13) 
nan

>  <Standard Units>  (13) 
nan

>  <Standard Value>  (13) 
nan

>  <Assay ChEMBL ID>  (13) 
nan

>  <Assay Description>  (13) 
nan

>  <BAO Label>  (13) 
nan

>  <bits>  (13) 
<rdkit.DataStructs.cDataStructs.ExplicitBitVect object at 0x000002AD6E9977D0>

>  <Group>  (13) 
G2

$$$$

     RDKit          2D

 35 38  0  0  0  0  0  0  0  0999 V2000
    3.0000    0.0000    0.0000 C   0  0  0  0  0  0  0  0  0  0  0  0
    1.5000    0.0000    0.0000 N   0  0  0  0  0  0  0  0  0  0  0  0
    0.7500   -1.2990    0.0000 C   0  0  0  0  0  0  0  0  0  0  0  0
   -0.7500   -1.2990    0.0000 C   0  0  0  0  0  0  0  0  0  0  0  0
   -1.5000    0.0000    0.0000 N   0  0  0  0  0  0  0  0  0  0  0  0
   -3.0000    0.0000    0.0000 C   0  0  0  0  0  0  0  0  0  0  0  0
   -3.7500    1.2990    0.0000 C   0  0  0  0  0  0  0  0  0  0  0  0
   -5.2500    1.2990    0.0000 C   0  0  0  0  0  0  0  0  0  0  0  0
   -6.0000    2.5981    0.0000 N   0  0  0  0  0  0  0  0  0  0  0  0
   -7.5000    2.5981    0.0000 C   0  0  0  0  0  0  0  0  0  0  0  0
   -8.2500    1.2990    0.0000 N   0  0  0  0  0  0  0  0  0  0  0  0
   -8.2500    3.8971    0.0000 C   0  0  0  0  0  0  0  0  0  0  0  0
   -9.7418    4.0539    0.0000 C   0  0  0  0  0  0  0  0  0  0  0  0
  -10.7455    2.9392    0.0000 O   0  0  0  0  0  0  0  0  0  0  0  0
  -10.0537    5.5211    0.0000 N   0  0  0  0  0  0  0  0  0  0  0  0
   -8.7546    6.2711    0.0000 S   0  0  0  0  0  0  0  0  0  0  0  0
   -7.6399    5.2674    0.0000 C   0  0  0  0  0  0  0  0  0  0  0  0
   -6.1727    5.5793    0.0000 N   0  0  0  0  0  0  0  0  0  0  0  0
   -5.7091    7.0059    0.0000 C   0  0  0  0  0  0  0  0  0  0  0  0
   -4.2419    7.3178    0.0000 C   0  0  0  0  0  0  0  0  0  0  0  0
   -3.7784    8.7443    0.0000 C   0  0  0  0  0  0  0  0  0  0  0  0
   -4.7821    9.8591    0.0000 C   0  0  0  0  0  0  0  0  0  0  0  0
   -4.3186   11.2856    0.0000 O   0  0  0  0  0  0  0  0  0  0  0  0
   -2.8514   11.5975    0.0000 C   0  0  0  0  0  0  0  0  0  0  0  0
   -1.8477   10.4828    0.0000 C   0  0  0  0  0  0  0  0  0  0  0  0
   -0.3804   10.7947    0.0000 C   0  0  0  0  0  0  0  0  0  0  0  0
    0.6233    9.6799    0.0000 Cl  0  0  0  0  0  0  0  0  0  0  0  0
    0.0831   12.2212    0.0000 C   0  0  0  0  0  0  0  0  0  0  0  0
   -0.9206   13.3360    0.0000 C   0  0  0  0  0  0  0  0  0  0  0  0
   -2.3878   13.0241    0.0000 C   0  0  0  0  0  0  0  0  0  0  0  0
   -3.3915   14.1388    0.0000 Cl  0  0  0  0  0  0  0  0  0  0  0  0
   -6.2493    9.5472    0.0000 C   0  0  0  0  0  0  0  0  0  0  0  0
   -6.7128    8.1206    0.0000 C   0  0  0  0  0  0  0  0  0  0  0  0
   -0.7500    1.2990    0.0000 C   0  0  0  0  0  0  0  0  0  0  0  0
    0.7500    1.2990    0.0000 C   0  0  0  0  0  0  0  0  0  0  0  0
  1  2  1  0
  2  3  1  0
  3  4  1  0
  4  5  1  0
  5  6  1  0
  6  7  1  0
  7  8  1  0
  8  9  1  0
  9 10  2  0
 10 11  1  0
 10 12  1  0
 12 13  1  0
 13 14  1  0
 13 15  2  0
 15 16  1  0
 16 17  1  0
 17 18  1  0
 18 19  1  0
 19 20  2  0
 20 21  1  0
 21 22  2  0
 22 23  1  0
 23 24  1  0
 24 25  2  0
 25 26  1  0
 26 27  1  0
 26 28  2  0
 28 29  1  0
 29 30  2  0
 30 31  1  0
 22 32  1  0
 32 33  2  0
  5 34  1  0
 34 35  1  0
 35  2  1  0
 17 12  2  0
 33 19  1  0
 30 24  1  0
M  END
>  <Compound_ID>  (14) 
CHEMBL386457

>  <Active>  (14) 
1

>  <Smiles>  (14) 
CN1CCN(CCC/N=C(\N)c2c(O)nsc2Nc2ccc(Oc3cc(Cl)ccc3Cl)cc2)CC1

>  <canonical_smi>  (14) 
CN1CCN(CCC/N=C(\N)c2c(O)nsc2Nc2ccc(Oc3cc(Cl)ccc3Cl)cc2)CC1

>  <Set>  (14) 
G1 active

>  <Set_type>  (14) 
G1

>  <MW>  (14) 
535.5

>  <HBD>  (14) 
3

>  <HBA>  (14) 
7

>  <NRB>  (14) 
9

>  <NR>  (14) 
4

>  <NAR>  (14) 
3

>  <PSA>  (14) 
99.24

>  <Standard Type>  (14) 
nan

>  <Standard Relation>  (14) 
nan

>  <Standard Units>  (14) 
nan

>  <Standard Value>  (14) 
nan

>  <Assay ChEMBL ID>  (14) 
nan

>  <Assay Description>  (14) 
nan

>  <BAO Label>  (14) 
nan

>  <bits>  (14) 
<rdkit.DataStructs.cDataStructs.ExplicitBitVect object at 0x000002AD6E994190>

>  <Group>  (14) 
G2

$$$$

     RDKit          2D

 33 37  0  0  0  0  0  0  0  0999 V2000
   -2.6401   -3.1891    0.0000 C   0  0  0  0  0  0  0  0  0  0  0  0
   -1.2135   -2.7256    0.0000 C   0  0  0  0  0  0  0  0  0  0  0  0
   -0.0000   -3.6073    0.0000 C   0  0  0  0  0  0  0  0  0  0  0  0
   -0.0000   -5.1073    0.0000 N   0  0  0  0  0  0  0  0  0  0  0  0
    1.2990   -5.8573    0.0000 C   0  0  0  0  0  0  0  0  0  0  0  0
    1.2990   -7.3573    0.0000 C   0  0  0  0  0  0  0  0  0  0  0  0
    2.5981   -8.1073    0.0000 C   0  0  0  0  0  0  0  0  0  0  0  0
    3.8971   -7.3573    0.0000 C   0  0  0  0  0  0  0  0  0  0  0  0
    3.8971   -5.8573    0.0000 C   0  0  0  0  0  0  0  0  0  0  0  0
    2.5981   -5.1073    0.0000 C   0  0  0  0  0  0  0  0  0  0  0  0
    1.2135   -2.7256    0.0000 C   0  0  0  0  0  0  0  0  0  0  0  0
    0.7500   -1.2990    0.0000 N   0  0  0  0  0  0  0  0  0  0  0  0
    1.5000    0.0000    0.0000 N   0  0  0  0  0  0  0  0  0  0  0  0
    0.7500    1.2990    0.0000 C   0  0  0  0  0  0  0  0  0  0  0  0
   -0.7500    1.2990    0.0000 C   0  0  0  0  0  0  0  0  0  0  0  0
   -1.5000    2.5981    0.0000 C   0  0  0  0  0  0  0  0  0  0  0  0
   -2.2500    3.8971    0.0000 N   0  0  0  0  0  0  0  0  0  0  0  0
   -1.5000    0.0000    0.0000 C   0  0  0  0  0  0  0  0  0  0  0  0
   -3.0000    0.0000    0.0000 N   0  0  0  0  0  0  0  0  0  0  0  0
   -3.7500    1.2990    0.0000 C   0  0  0  0  0  0  0  0  0  0  0  0
   -3.0000    2.5981    0.0000 C   0  0  0  0  0  0  0  0  0  0  0  0
   -3.7500    3.8971    0.0000 C   0  0  0  0  0  0  0  0  0  0  0  0
   -5.2500    3.8971    0.0000 C   0  0  0  0  0  0  0  0  0  0  0  0
   -6.0000    5.1962    0.0000 O   0  0  0  0  0  0  0  0  0  0  0  0
   -5.2500    6.4952    0.0000 C   0  0  0  0  0  0  0  0  0  0  0  0
   -3.7500    6.4952    0.0000 C   0  0  0  0  0  0  0  0  0  0  0  0
   -3.0000    7.7942    0.0000 C   0  0  0  0  0  0  0  0  0  0  0  0
   -3.7500    9.0933    0.0000 C   0  0  0  0  0  0  0  0  0  0  0  0
   -5.2500    9.0933    0.0000 C   0  0  0  0  0  0  0  0  0  0  0  0
   -6.0000    7.7942    0.0000 C   0  0  0  0  0  0  0  0  0  0  0  0
   -6.0000    2.5981    0.0000 C   0  0  0  0  0  0  0  0  0  0  0  0
   -5.2500    1.2990    0.0000 C   0  0  0  0  0  0  0  0  0  0  0  0
   -0.7500   -1.2990    0.0000 C   0  0  0  0  0  0  0  0  0  0  0  0
  1  2  1  0
  2  3  1  0
  3  4  1  0
  4  5  1  0
  5  6  2  0
  6  7  1  0
  7  8  2  0
  8  9  1  0
  9 10  2  0
  3 11  2  0
 11 12  1  0
 12 13  1  0
 13 14  2  0
 14 15  1  0
 15 16  1  0
 16 17  3  0
 15 18  2  0
 18 19  1  0
 19 20  1  0
 20 21  2  0
 21 22  1  0
 22 23  2  0
 23 24  1  0
 24 25  1  0
 25 26  2  0
 26 27  1  0
 27 28  2  0
 28 29  1  0
 29 30  2  0
 23 31  1  0
 31 32  2  0
 18 33  1  0
 33  2  2  0
 10  5  1  0
 33 12  1  0
 32 20  1  0
 30 25  1  0
M  END
>  <Compound_ID>  (15) 
CHEMBL201384

>  <Active>  (15) 
1

>  <Smiles>  (15) 
Cc1c(Nc2ccccc2)cn2ncc(C#N)c(Nc3ccc(Oc4ccccc4)cc3)c12

>  <canonical_smi>  (15) 
Cc1c(Nc2ccccc2)cn2ncc(C#N)c(Nc3ccc(Oc4ccccc4)cc3)c12

>  <Set>  (15) 
G1 active

>  <Set_type>  (15) 
G1

>  <MW>  (15) 
431.5

>  <HBD>  (15) 
2

>  <HBA>  (15) 
5

>  <NRB>  (15) 
6

>  <NR>  (15) 
5

>  <NAR>  (15) 
5

>  <PSA>  (15) 
74.38

>  <Standard Type>  (15) 
nan

>  <Standard Relation>  (15) 
nan

>  <Standard Units>  (15) 
nan

>  <Standard Value>  (15) 
nan

>  <Assay ChEMBL ID>  (15) 
nan

>  <Assay Description>  (15) 
nan

>  <BAO Label>  (15) 
nan

>  <bits>  (15) 
<rdkit.DataStructs.cDataStructs.ExplicitBitVect object at 0x000002AD6E995070>

>  <Group>  (15) 
G2

$$$$

     RDKit          2D

 27 29  0  0  0  0  0  0  0  0999 V2000
    2.2500   -6.4952    0.0000 N   0  0  0  0  0  0  0  0  0  0  0  0
    3.0000   -5.1962    0.0000 C   0  0  0  0  0  0  0  0  0  0  0  0
    3.7500   -3.8971    0.0000 C   0  0  0  0  0  0  0  0  0  0  0  0
    3.0000   -2.5981    0.0000 C   0  0  0  0  0  0  0  0  0  0  0  0
    3.7500   -1.2990    0.0000 N   0  0  0  0  0  0  0  0  0  0  0  0
    1.5000   -2.5981    0.0000 S   0  0  0  0  0  0  0  0  0  0  0  0
    0.7500   -1.2990    0.0000 C   0  0  0  0  0  0  0  0  0  0  0  0
    1.5000    0.0000    0.0000 C   0  0  0  0  0  0  0  0  0  0  0  0
    0.7500    1.2990    0.0000 C   0  0  0  0  0  0  0  0  0  0  0  0
   -0.7500    1.2990    0.0000 C   0  0  0  0  0  0  0  0  0  0  0  0
   -1.5000    0.0000    0.0000 C   0  0  0  0  0  0  0  0  0  0  0  0
   -0.7500   -1.2990    0.0000 C   0  0  0  0  0  0  0  0  0  0  0  0
   -1.5000   -2.5981    0.0000 N   0  0  0  0  0  0  0  0  0  0  0  0
    5.2500   -3.8971    0.0000 C   0  0  0  0  0  0  0  0  0  0  0  0
    6.0000   -5.1962    0.0000 C   0  0  0  0  0  0  0  0  0  0  0  0
    7.5000   -5.1962    0.0000 C   0  0  0  0  0  0  0  0  0  0  0  0
    8.2500   -3.8971    0.0000 C   0  0  0  0  0  0  0  0  0  0  0  0
    7.5000   -2.5981    0.0000 C   0  0  0  0  0  0  0  0  0  0  0  0
    8.2500   -1.2990    0.0000 C   0  0  0  0  0  0  0  0  0  0  0  0
    7.5000    0.0000    0.0000 O   0  0  0  0  0  0  0  0  0  0  0  0
    9.7500   -1.2990    0.0000 C   0  0  0  0  0  0  0  0  0  0  0  0
   10.5000   -2.5981    0.0000 C   0  0  0  0  0  0  0  0  0  0  0  0
   12.0000   -2.5981    0.0000 C   0  0  0  0  0  0  0  0  0  0  0  0
   12.7500   -1.2990    0.0000 C   0  0  0  0  0  0  0  0  0  0  0  0
   12.0000    0.0000    0.0000 C   0  0  0  0  0  0  0  0  0  0  0  0
   10.5000    0.0000    0.0000 C   0  0  0  0  0  0  0  0  0  0  0  0
    6.0000   -2.5981    0.0000 C   0  0  0  0  0  0  0  0  0  0  0  0
  1  2  3  0
  2  3  1  0
  3  4  2  0
  4  5  1  0
  4  6  1  0
  6  7  1  0
  7  8  2  0
  8  9  1  0
  9 10  2  0
 10 11  1  0
 11 12  2  0
 12 13  1  0
  3 14  1  0
 14 15  2  0
 15 16  1  0
 16 17  2  0
 17 18  1  0
 18 19  1  0
 19 20  2  0
 19 21  1  0
 21 22  2  0
 22 23  1  0
 23 24  2  0
 24 25  1  0
 25 26  2  0
 18 27  2  0
 12  7  1  0
 27 14  1  0
 26 21  1  0
M  END
>  <Compound_ID>  (16) 
CHEMBL422940

>  <Active>  (16) 
1

>  <Smiles>  (16) 
N#C/C(=C(/N)Sc1ccccc1N)c1cccc(C(=O)c2ccccc2)c1

>  <canonical_smi>  (16) 
N#C/C(=C(/N)Sc1ccccc1N)c1cccc(C(=O)c2ccccc2)c1

>  <Set>  (16) 
G1 active

>  <Set_type>  (16) 
G1

>  <MW>  (16) 
371.47

>  <HBD>  (16) 
2

>  <HBA>  (16) 
5

>  <NRB>  (16) 
5

>  <NR>  (16) 
3

>  <NAR>  (16) 
3

>  <PSA>  (16) 
92.9

>  <Standard Type>  (16) 
nan

>  <Standard Relation>  (16) 
nan

>  <Standard Units>  (16) 
nan

>  <Standard Value>  (16) 
nan

>  <Assay ChEMBL ID>  (16) 
nan

>  <Assay Description>  (16) 
nan

>  <BAO Label>  (16) 
nan

>  <bits>  (16) 
<rdkit.DataStructs.cDataStructs.ExplicitBitVect object at 0x000002AD6E995850>

>  <Group>  (16) 
G2

$$$$

     RDKit          2D

 35 39  0  0  0  0  0  0  0  0999 V2000
   -2.6401   -3.1891    0.0000 C   0  0  0  0  0  0  0  0  0  0  0  0
   -1.2135   -2.7256    0.0000 C   0  0  0  0  0  0  0  0  0  0  0  0
   -0.0000   -3.6073    0.0000 C   0  0  0  0  0  0  0  0  0  0  0  0
   -0.0000   -5.1073    0.0000 O   0  0  0  0  0  0  0  0  0  0  0  0
    1.2990   -5.8573    0.0000 C   0  0  0  0  0  0  0  0  0  0  0  0
    1.2990   -7.3573    0.0000 C   0  0  0  0  0  0  0  0  0  0  0  0
    2.5981   -8.1073    0.0000 N   0  0  0  0  0  0  0  0  0  0  0  0
    2.5981   -9.6073    0.0000 C   0  0  0  0  0  0  0  0  0  0  0  0
    3.8971  -10.3573    0.0000 C   0  0  0  0  0  0  0  0  0  0  0  0
    5.1962   -9.6073    0.0000 O   0  0  0  0  0  0  0  0  0  0  0  0
    5.1962   -8.1073    0.0000 C   0  0  0  0  0  0  0  0  0  0  0  0
    3.8971   -7.3573    0.0000 C   0  0  0  0  0  0  0  0  0  0  0  0
    1.2135   -2.7256    0.0000 C   0  0  0  0  0  0  0  0  0  0  0  0
    0.7500   -1.2990    0.0000 N   0  0  0  0  0  0  0  0  0  0  0  0
    1.5000    0.0000    0.0000 N   0  0  0  0  0  0  0  0  0  0  0  0
    0.7500    1.2990    0.0000 C   0  0  0  0  0  0  0  0  0  0  0  0
   -0.7500    1.2990    0.0000 C   0  0  0  0  0  0  0  0  0  0  0  0
   -1.5000    2.5981    0.0000 C   0  0  0  0  0  0  0  0  0  0  0  0
   -2.2500    3.8971    0.0000 N   0  0  0  0  0  0  0  0  0  0  0  0
   -1.5000    0.0000    0.0000 C   0  0  0  0  0  0  0  0  0  0  0  0
   -3.0000    0.0000    0.0000 N   0  0  0  0  0  0  0  0  0  0  0  0
   -3.7500    1.2990    0.0000 C   0  0  0  0  0  0  0  0  0  0  0  0
   -3.0000    2.5981    0.0000 C   0  0  0  0  0  0  0  0  0  0  0  0
   -3.7500    3.8971    0.0000 C   0  0  0  0  0  0  0  0  0  0  0  0
   -5.2500    3.8971    0.0000 C   0  0  0  0  0  0  0  0  0  0  0  0
   -6.0000    5.1962    0.0000 O   0  0  0  0  0  0  0  0  0  0  0  0
   -5.2500    6.4952    0.0000 C   0  0  0  0  0  0  0  0  0  0  0  0
   -3.7500    6.4952    0.0000 C   0  0  0  0  0  0  0  0  0  0  0  0
   -3.0000    7.7942    0.0000 C   0  0  0  0  0  0  0  0  0  0  0  0
   -3.7500    9.0933    0.0000 C   0  0  0  0  0  0  0  0  0  0  0  0
   -5.2500    9.0933    0.0000 C   0  0  0  0  0  0  0  0  0  0  0  0
   -6.0000    7.7942    0.0000 C   0  0  0  0  0  0  0  0  0  0  0  0
   -6.0000    2.5981    0.0000 C   0  0  0  0  0  0  0  0  0  0  0  0
   -5.2500    1.2990    0.0000 C   0  0  0  0  0  0  0  0  0  0  0  0
   -0.7500   -1.2990    0.0000 C   0  0  0  0  0  0  0  0  0  0  0  0
  1  2  1  0
  2  3  1  0
  3  4  1  0
  4  5  1  0
  5  6  1  0
  6  7  1  0
  7  8  1  0
  8  9  1  0
  9 10  1  0
 10 11  1  0
 11 12  1  0
  3 13  2  0
 13 14  1  0
 14 15  1  0
 15 16  2  0
 16 17  1  0
 17 18  1  0
 18 19  3  0
 17 20  2  0
 20 21  1  0
 21 22  1  0
 22 23  2  0
 23 24  1  0
 24 25  2  0
 25 26  1  0
 26 27  1  0
 27 28  2  0
 28 29  1  0
 29 30  2  0
 30 31  1  0
 31 32  2  0
 25 33  1  0
 33 34  2  0
 20 35  1  0
 35  2  2  0
 12  7  1  0
 35 14  1  0
 34 22  1  0
 32 27  1  0
M  END
>  <Compound_ID>  (17) 
CHEMBL201716

>  <Active>  (17) 
1

>  <Smiles>  (17) 
Cc1c(OCCN2CCOCC2)cn2ncc(C#N)c(Nc3ccc(Oc4ccccc4)cc3)c12

>  <canonical_smi>  (17) 
Cc1c(OCCN2CCOCC2)cn2ncc(C#N)c(Nc3ccc(Oc4ccccc4)cc3)c12

>  <Set>  (17) 
G1 active

>  <Set_type>  (17) 
G1

>  <MW>  (17) 
469.55

>  <HBD>  (17) 
1

>  <HBA>  (17) 
7

>  <NRB>  (17) 
8

>  <NR>  (17) 
5

>  <NAR>  (17) 
4

>  <PSA>  (17) 
84.05

>  <Standard Type>  (17) 
nan

>  <Standard Relation>  (17) 
nan

>  <Standard Units>  (17) 
nan

>  <Standard Value>  (17) 
nan

>  <Assay ChEMBL ID>  (17) 
nan

>  <Assay Description>  (17) 
nan

>  <BAO Label>  (17) 
nan

>  <bits>  (17) 
<rdkit.DataStructs.cDataStructs.ExplicitBitVect object at 0x000002AD6E994EB0>

>  <Group>  (17) 
G2

$$$$

     RDKit          2D

 13 14  0  0  0  0  0  0  0  0999 V2000
   -3.5718    0.8070    0.0000 O   0  0  0  0  0  0  0  0  0  0  0  0
   -2.2841    1.5763    0.0000 C   0  0  0  0  0  0  0  0  0  0  0  0
   -2.4186    3.0703    0.0000 C   0  0  0  0  0  0  0  0  0  0  0  0
   -1.3344    4.1069    0.0000 C   0  0  0  0  0  0  0  0  0  0  0  0
    0.1520    3.9056    0.0000 N   0  0  0  0  0  0  0  0  0  0  0  0
    0.9214    2.6179    0.0000 C   0  0  0  0  0  0  0  0  0  0  0  0
    2.4153    2.7523    0.0000 O   0  0  0  0  0  0  0  0  0  0  0  0
    0.3943    1.2135    0.0000 C   0  0  0  0  0  0  0  0  0  0  0  0
    1.2760    0.0000    0.0000 N   0  0  0  0  0  0  0  0  0  0  0  0
    0.3943   -1.2135    0.0000 C   0  0  0  0  0  0  0  0  0  0  0  0
    0.8578   -2.6401    0.0000 Br  0  0  0  0  0  0  0  0  0  0  0  0
   -1.0323   -0.7500    0.0000 C   0  0  0  0  0  0  0  0  0  0  0  0
   -1.0323    0.7500    0.0000 C   0  0  0  0  0  0  0  0  0  0  0  0
  1  2  2  0
  2  3  1  0
  3  4  1  0
  4  5  1  0
  5  6  1  0
  6  7  2  0
  6  8  1  0
  8  9  1  0
  9 10  1  0
 10 11  1  0
 10 12  2  0
 12 13  1  0
 13  2  1  0
 13  8  2  0
M  END
>  <Compound_ID>  (18) 
CHEMBL440356

>  <Active>  (18) 
1

>  <Smiles>  (18) 
O=C1CCNC(=O)c2[nH]c(Br)cc21

>  <canonical_smi>  (18) 
O=C1CCNC(=O)c2[nH]c(Br)cc21

>  <Set>  (18) 
G1 active

>  <Set_type>  (18) 
G1

>  <MW>  (18) 
243.06

>  <HBD>  (18) 
2

>  <HBA>  (18) 
2

>  <NRB>  (18) 
0

>  <NR>  (18) 
2

>  <NAR>  (18) 
1

>  <PSA>  (18) 
61.96

>  <Standard Type>  (18) 
nan

>  <Standard Relation>  (18) 
nan

>  <Standard Units>  (18) 
nan

>  <Standard Value>  (18) 
nan

>  <Assay ChEMBL ID>  (18) 
nan

>  <Assay Description>  (18) 
nan

>  <BAO Label>  (18) 
nan

>  <bits>  (18) 
<rdkit.DataStructs.cDataStructs.ExplicitBitVect object at 0x000002AD6E9947B0>

>  <Group>  (18) 
G2

$$$$

     RDKit          2D

 26 28  0  0  0  0  0  0  0  0999 V2000
    2.2500   -6.4952    0.0000 N   0  0  0  0  0  0  0  0  0  0  0  0
    3.0000   -5.1962    0.0000 C   0  0  0  0  0  0  0  0  0  0  0  0
    3.7500   -3.8971    0.0000 C   0  0  0  0  0  0  0  0  0  0  0  0
    3.0000   -2.5981    0.0000 C   0  0  0  0  0  0  0  0  0  0  0  0
    3.7500   -1.2990    0.0000 N   0  0  0  0  0  0  0  0  0  0  0  0
    1.5000   -2.5981    0.0000 S   0  0  0  0  0  0  0  0  0  0  0  0
    0.7500   -1.2990    0.0000 C   0  0  0  0  0  0  0  0  0  0  0  0
    1.5000    0.0000    0.0000 C   0  0  0  0  0  0  0  0  0  0  0  0
    0.7500    1.2990    0.0000 C   0  0  0  0  0  0  0  0  0  0  0  0
   -0.7500    1.2990    0.0000 C   0  0  0  0  0  0  0  0  0  0  0  0
   -1.5000    0.0000    0.0000 C   0  0  0  0  0  0  0  0  0  0  0  0
   -0.7500   -1.2990    0.0000 C   0  0  0  0  0  0  0  0  0  0  0  0
   -1.5000   -2.5981    0.0000 N   0  0  0  0  0  0  0  0  0  0  0  0
    5.2500   -3.8971    0.0000 C   0  0  0  0  0  0  0  0  0  0  0  0
    6.0000   -5.1962    0.0000 C   0  0  0  0  0  0  0  0  0  0  0  0
    7.5000   -5.1962    0.0000 C   0  0  0  0  0  0  0  0  0  0  0  0
    8.2500   -3.8971    0.0000 C   0  0  0  0  0  0  0  0  0  0  0  0
    9.7500   -3.8971    0.0000 O   0  0  0  0  0  0  0  0  0  0  0  0
   10.5000   -5.1962    0.0000 C   0  0  0  0  0  0  0  0  0  0  0  0
    9.7500   -6.4952    0.0000 C   0  0  0  0  0  0  0  0  0  0  0  0
   10.5000   -7.7942    0.0000 C   0  0  0  0  0  0  0  0  0  0  0  0
   12.0000   -7.7942    0.0000 C   0  0  0  0  0  0  0  0  0  0  0  0
   12.7500   -6.4952    0.0000 C   0  0  0  0  0  0  0  0  0  0  0  0
   12.0000   -5.1962    0.0000 C   0  0  0  0  0  0  0  0  0  0  0  0
    7.5000   -2.5981    0.0000 C   0  0  0  0  0  0  0  0  0  0  0  0
    6.0000   -2.5981    0.0000 C   0  0  0  0  0  0  0  0  0  0  0  0
  1  2  3  0
  2  3  1  0
  3  4  2  0
  4  5  1  0
  4  6  1  0
  6  7  1  0
  7  8  2  0
  8  9  1  0
  9 10  2  0
 10 11  1  0
 11 12  2  0
 12 13  1  0
  3 14  1  0
 14 15  2  0
 15 16  1  0
 16 17  2  0
 17 18  1  0
 18 19  1  0
 19 20  2  0
 20 21  1  0
 21 22  2  0
 22 23  1  0
 23 24  2  0
 17 25  1  0
 25 26  2  0
 12  7  1  0
 26 14  1  0
 24 19  1  0
M  END
>  <Compound_ID>  (19) 
CHEMBL37646

>  <Active>  (19) 
1

>  <Smiles>  (19) 
N#C/C(=C(/N)Sc1ccccc1N)c1ccc(Oc2ccccc2)cc1

>  <canonical_smi>  (19) 
N#C/C(=C(/N)Sc1ccccc1N)c1ccc(Oc2ccccc2)cc1

>  <Set>  (19) 
G1 active

>  <Set_type>  (19) 
G1

>  <MW>  (19) 
359.45

>  <HBD>  (19) 
2

>  <HBA>  (19) 
5

>  <NRB>  (19) 
5

>  <NR>  (19) 
3

>  <NAR>  (19) 
3

>  <PSA>  (19) 
85.06

>  <Standard Type>  (19) 
nan

>  <Standard Relation>  (19) 
nan

>  <Standard Units>  (19) 
nan

>  <Standard Value>  (19) 
nan

>  <Assay ChEMBL ID>  (19) 
nan

>  <Assay Description>  (19) 
nan

>  <BAO Label>  (19) 
nan

>  <bits>  (19) 
<rdkit.DataStructs.cDataStructs.ExplicitBitVect object at 0x000002AD6E994510>

>  <Group>  (19) 
G2

$$$$

     RDKit          2D

 35 39  0  0  0  0  0  0  0  0999 V2000
   -2.2500   -6.4952    0.0000 N   0  0  0  0  0  0  0  0  0  0  0  0
   -1.5000   -5.1962    0.0000 C   0  0  0  0  0  0  0  0  0  0  0  0
   -0.7500   -3.8971    0.0000 C   0  0  0  0  0  0  0  0  0  0  0  0
    0.7500   -3.8971    0.0000 C   0  0  0  0  0  0  0  0  0  0  0  0
    1.5000   -2.5981    0.0000 N   0  0  0  0  0  0  0  0  0  0  0  0
    0.7500   -1.2990    0.0000 C   0  0  0  0  0  0  0  0  0  0  0  0
    1.5000    0.0000    0.0000 C   0  0  0  0  0  0  0  0  0  0  0  0
    0.7500    1.2990    0.0000 N   0  0  0  0  0  0  0  0  0  0  0  0
   -0.7500    1.2990    0.0000 C   0  0  0  0  0  0  0  0  0  0  0  0
   -1.5000    2.5981    0.0000 N   0  0  0  0  0  0  0  0  0  0  0  0
   -0.7500    3.8971    0.0000 C   0  0  0  0  0  0  0  0  0  0  0  0
   -1.5000    5.1962    0.0000 C   0  0  0  0  0  0  0  0  0  0  0  0
   -0.7500    6.4952    0.0000 N   0  0  0  0  0  0  0  0  0  0  0  0
    0.7500    6.4952    0.0000 C   0  0  0  0  0  0  0  0  0  0  0  0
    1.5000    7.7942    0.0000 C   0  0  0  0  0  0  0  0  0  0  0  0
    0.7500    9.0933    0.0000 O   0  0  0  0  0  0  0  0  0  0  0  0
   -0.7500    9.0933    0.0000 C   0  0  0  0  0  0  0  0  0  0  0  0
   -1.5000    7.7942    0.0000 C   0  0  0  0  0  0  0  0  0  0  0  0
   -1.5000    0.0000    0.0000 C   0  0  0  0  0  0  0  0  0  0  0  0
   -0.7500   -1.2990    0.0000 C   0  0  0  0  0  0  0  0  0  0  0  0
   -1.5000   -2.5981    0.0000 C   0  0  0  0  0  0  0  0  0  0  0  0
   -3.0000   -2.5981    0.0000 N   0  0  0  0  0  0  0  0  0  0  0  0
   -3.7500   -1.2990    0.0000 C   0  0  0  0  0  0  0  0  0  0  0  0
   -3.0000    0.0000    0.0000 C   0  0  0  0  0  0  0  0  0  0  0  0
   -3.7500    1.2990    0.0000 C   0  0  0  0  0  0  0  0  0  0  0  0
   -5.2500    1.2990    0.0000 C   0  0  0  0  0  0  0  0  0  0  0  0
   -6.0000    2.5981    0.0000 S   0  0  0  0  0  0  0  0  0  0  0  0
   -5.2500    3.8971    0.0000 C   0  0  0  0  0  0  0  0  0  0  0  0
   -3.7500    3.8971    0.0000 C   0  0  0  0  0  0  0  0  0  0  0  0
   -3.0000    5.1962    0.0000 C   0  0  0  0  0  0  0  0  0  0  0  0
   -3.7500    6.4952    0.0000 C   0  0  0  0  0  0  0  0  0  0  0  0
   -5.2500    6.4952    0.0000 C   0  0  0  0  0  0  0  0  0  0  0  0
   -6.0000    5.1962    0.0000 C   0  0  0  0  0  0  0  0  0  0  0  0
   -6.0000    0.0000    0.0000 C   0  0  0  0  0  0  0  0  0  0  0  0
   -5.2500   -1.2990    0.0000 C   0  0  0  0  0  0  0  0  0  0  0  0
  1  2  3  0
  2  3  1  0
  3  4  2  0
  4  5  1  0
  5  6  2  0
  6  7  1  0
  7  8  2  0
  8  9  1  0
  9 10  1  0
 10 11  1  0
 11 12  1  0
 12 13  1  0
 13 14  1  0
 14 15  1  0
 15 16  1  0
 16 17  1  0
 17 18  1  0
  9 19  2  0
 19 20  1  0
 20 21  2  0
 21 22  1  0
 22 23  1  0
 23 24  2  0
 24 25  1  0
 25 26  2  0
 26 27  1  0
 27 28  1  0
 28 29  2  0
 29 30  1  0
 30 31  2  0
 31 32  1  0
 32 33  2  0
 26 34  1  0
 34 35  2  0
 21  3  1  0
 35 23  1  0
 20  6  1  0
 33 28  1  0
 18 13  1  0
M  END
>  <Compound_ID>  (20) 
CHEMBL199210

>  <Active>  (20) 
1

>  <Smiles>  (20) 
N#Cc1cnc2cnc(NCCN3CCOCC3)cc2c1Nc1ccc(Sc2ccccc2)cc1

>  <canonical_smi>  (20) 
N#Cc1cnc2cnc(NCCN3CCOCC3)cc2c1Nc1ccc(Sc2ccccc2)cc1

>  <Set>  (20) 
G1 active

>  <Set_type>  (20) 
G1

>  <MW>  (20) 
482.61

>  <HBD>  (20) 
2

>  <HBA>  (20) 
8

>  <NRB>  (20) 
8

>  <NR>  (20) 
5

>  <NAR>  (20) 
4

>  <PSA>  (20) 
86.1

>  <Standard Type>  (20) 
nan

>  <Standard Relation>  (20) 
nan

>  <Standard Units>  (20) 
nan

>  <Standard Value>  (20) 
nan

>  <Assay ChEMBL ID>  (20) 
nan

>  <Assay Description>  (20) 
nan

>  <BAO Label>  (20) 
nan

>  <bits>  (20) 
<rdkit.DataStructs.cDataStructs.ExplicitBitVect object at 0x000002AD6E994350>

>  <Group>  (20) 
G2

$$$$

     RDKit          2D

 38 42  0  0  0  0  0  0  0  0999 V2000
    3.7500   -1.2990    0.0000 C   0  0  0  0  0  0  0  0  0  0  0  0
    3.0000    0.0000    0.0000 O   0  0  0  0  0  0  0  0  0  0  0  0
    1.5000    0.0000    0.0000 C   0  0  0  0  0  0  0  0  0  0  0  0
    0.7500   -1.2990    0.0000 C   0  0  0  0  0  0  0  0  0  0  0  0
   -0.7500   -1.2990    0.0000 C   0  0  0  0  0  0  0  0  0  0  0  0
   -1.5000   -2.5981    0.0000 C   0  0  0  0  0  0  0  0  0  0  0  0
   -0.7500   -3.8971    0.0000 N   0  0  0  0  0  0  0  0  0  0  0  0
   -1.5000   -5.1962    0.0000 C   0  0  0  0  0  0  0  0  0  0  0  0
   -3.0000   -5.1962    0.0000 C   0  0  0  0  0  0  0  0  0  0  0  0
   -3.7500   -6.4952    0.0000 C   0  0  0  0  0  0  0  0  0  0  0  0
   -3.0000   -7.7942    0.0000 C   0  0  0  0  0  0  0  0  0  0  0  0
   -3.7500   -9.0933    0.0000 C   0  0  0  0  0  0  0  0  0  0  0  0
   -5.2500   -9.0933    0.0000 C   0  0  0  0  0  0  0  0  0  0  0  0
   -6.0000   -7.7942    0.0000 C   0  0  0  0  0  0  0  0  0  0  0  0
   -7.5000   -7.7942    0.0000 C   0  0  0  0  0  0  0  0  0  0  0  0
   -8.2500   -9.0933    0.0000 C   0  0  0  0  0  0  0  0  0  0  0  0
   -7.5000  -10.3923    0.0000 C   0  0  0  0  0  0  0  0  0  0  0  0
   -6.0000  -10.3923    0.0000 C   0  0  0  0  0  0  0  0  0  0  0  0
   -1.5000   -7.7942    0.0000 C   0  0  0  0  0  0  0  0  0  0  0  0
   -0.7500   -6.4952    0.0000 C   0  0  0  0  0  0  0  0  0  0  0  0
   -3.0000   -2.5981    0.0000 C   0  0  0  0  0  0  0  0  0  0  0  0
   -3.7500   -3.8971    0.0000 C   0  0  0  0  0  0  0  0  0  0  0  0
   -4.5000   -5.1962    0.0000 N   0  0  0  0  0  0  0  0  0  0  0  0
   -3.7500   -1.2990    0.0000 C   0  0  0  0  0  0  0  0  0  0  0  0
   -3.0000    0.0000    0.0000 N   0  0  0  0  0  0  0  0  0  0  0  0
   -1.5000    0.0000    0.0000 C   0  0  0  0  0  0  0  0  0  0  0  0
   -0.7500    1.2990    0.0000 C   0  0  0  0  0  0  0  0  0  0  0  0
    0.7500    1.2990    0.0000 C   0  0  0  0  0  0  0  0  0  0  0  0
    1.5000    2.5981    0.0000 O   0  0  0  0  0  0  0  0  0  0  0  0
    0.7500    3.8971    0.0000 C   0  0  0  0  0  0  0  0  0  0  0  0
    1.5000    5.1962    0.0000 C   0  0  0  0  0  0  0  0  0  0  0  0
    0.7500    6.4952    0.0000 C   0  0  0  0  0  0  0  0  0  0  0  0
    1.5000    7.7942    0.0000 N   0  0  0  0  0  0  0  0  0  0  0  0
    3.0000    7.7942    0.0000 C   0  0  0  0  0  0  0  0  0  0  0  0
    3.7500    9.0933    0.0000 C   0  0  0  0  0  0  0  0  0  0  0  0
    3.0000   10.3923    0.0000 O   0  0  0  0  0  0  0  0  0  0  0  0
    1.5000   10.3923    0.0000 C   0  0  0  0  0  0  0  0  0  0  0  0
    0.7500    9.0933    0.0000 C   0  0  0  0  0  0  0  0  0  0  0  0
  1  2  1  0
  2  3  1  0
  3  4  2  0
  4  5  1  0
  5  6  2  0
  6  7  1  0
  7  8  1  0
  8  9  2  0
  9 10  1  0
 10 11  2  0
 11 12  1  0
 12 13  1  0
 13 14  2  0
 14 15  1  0
 15 16  2  0
 16 17  1  0
 17 18  2  0
 11 19  1  0
 19 20  2  0
  6 21  1  0
 21 22  1  0
 22 23  3  0
 21 24  2  0
 24 25  1  0
 25 26  2  0
 26 27  1  0
 27 28  2  0
 28 29  1  0
 29 30  1  0
 30 31  1  0
 31 32  1  0
 32 33  1  0
 33 34  1  0
 34 35  1  0
 35 36  1  0
 36 37  1  0
 37 38  1  0
 28  3  1  0
 38 33  1  0
 26  5  1  0
 20  8  1  0
 18 13  1  0
M  END
>  <Compound_ID>  (21) 
CHEMBL30728

>  <Active>  (21) 
1

>  <Smiles>  (21) 
COc1cc2c(Nc3ccc(Cc4ccccc4)cc3)c(C#N)cnc2cc1OCCCN1CCOCC1

>  <canonical_smi>  (21) 
COc1cc2c(Nc3ccc(Cc4ccccc4)cc3)c(C#N)cnc2cc1OCCCN1CCOCC1

>  <Set>  (21) 
G2 active

>  <Set_type>  (21) 
Train

>  <MW>  (21) 
508.62

>  <HBD>  (21) 
1

>  <HBA>  (21) 
7

>  <NRB>  (21) 
10

>  <NR>  (21) 
5

>  <NAR>  (21) 
4

>  <PSA>  (21) 
79.64

>  <Standard Type>  (21) 
nan

>  <Standard Relation>  (21) 
nan

>  <Standard Units>  (21) 
nan

>  <Standard Value>  (21) 
nan

>  <Assay ChEMBL ID>  (21) 
nan

>  <Assay Description>  (21) 
nan

>  <BAO Label>  (21) 
nan

>  <bits>  (21) 
<rdkit.DataStructs.cDataStructs.ExplicitBitVect object at 0x000002AD6E9954D0>

>  <Group>  (21) 
G2

$$$$

     RDKit          2D

 30 33  0  0  0  0  0  0  0  0999 V2000
    3.7500   -1.2990    0.0000 C   0  0  0  0  0  0  0  0  0  0  0  0
    3.0000    0.0000    0.0000 O   0  0  0  0  0  0  0  0  0  0  0  0
    1.5000    0.0000    0.0000 C   0  0  0  0  0  0  0  0  0  0  0  0
    0.7500   -1.2990    0.0000 C   0  0  0  0  0  0  0  0  0  0  0  0
   -0.7500   -1.2990    0.0000 C   0  0  0  0  0  0  0  0  0  0  0  0
   -1.5000   -2.5981    0.0000 N   0  0  0  0  0  0  0  0  0  0  0  0
   -3.0000   -2.5981    0.0000 C   0  0  0  0  0  0  0  0  0  0  0  0
   -3.7500   -1.2990    0.0000 C   0  0  0  0  0  0  0  0  0  0  0  0
   -5.2500   -1.2990    0.0000 C   0  0  0  0  0  0  0  0  0  0  0  0
   -6.7500   -1.2990    0.0000 N   0  0  0  0  0  0  0  0  0  0  0  0
   -3.0000    0.0000    0.0000 C   0  0  0  0  0  0  0  0  0  0  0  0
   -3.7500    1.2990    0.0000 N   0  0  0  0  0  0  0  0  0  0  0  0
   -3.0000    2.5981    0.0000 C   0  0  0  0  0  0  0  0  0  0  0  0
   -1.5000    2.5981    0.0000 C   0  0  0  0  0  0  0  0  0  0  0  0
   -0.7500    3.8971    0.0000 C   0  0  0  0  0  0  0  0  0  0  0  0
   -1.5000    5.1962    0.0000 C   0  0  0  0  0  0  0  0  0  0  0  0
   -0.7500    6.4952    0.0000 O   0  0  0  0  0  0  0  0  0  0  0  0
    0.7500    6.4952    0.0000 C   0  0  0  0  0  0  0  0  0  0  0  0
    1.5000    5.1962    0.0000 C   0  0  0  0  0  0  0  0  0  0  0  0
    3.0000    5.1962    0.0000 C   0  0  0  0  0  0  0  0  0  0  0  0
    3.7500    6.4952    0.0000 C   0  0  0  0  0  0  0  0  0  0  0  0
    3.0000    7.7942    0.0000 C   0  0  0  0  0  0  0  0  0  0  0  0
    1.5000    7.7942    0.0000 C   0  0  0  0  0  0  0  0  0  0  0  0
   -3.0000    5.1962    0.0000 C   0  0  0  0  0  0  0  0  0  0  0  0
   -3.7500    3.8971    0.0000 C   0  0  0  0  0  0  0  0  0  0  0  0
   -1.5000    0.0000    0.0000 C   0  0  0  0  0  0  0  0  0  0  0  0
   -0.7500    1.2990    0.0000 C   0  0  0  0  0  0  0  0  0  0  0  0
    0.7500    1.2990    0.0000 C   0  0  0  0  0  0  0  0  0  0  0  0
    1.5000    2.5981    0.0000 O   0  0  0  0  0  0  0  0  0  0  0  0
    3.0000    2.5981    0.0000 C   0  0  0  0  0  0  0  0  0  0  0  0
  1  2  1  0
  2  3  1  0
  3  4  2  0
  4  5  1  0
  5  6  2  0
  6  7  1  0
  7  8  2  0
  8  9  1  0
  9 10  3  0
  8 11  1  0
 11 12  1  0
 12 13  1  0
 13 14  2  0
 14 15  1  0
 15 16  2  0
 16 17  1  0
 17 18  1  0
 18 19  2  0
 19 20  1  0
 20 21  2  0
 21 22  1  0
 22 23  2  0
 16 24  1  0
 24 25  2  0
 11 26  2  0
 26 27  1  0
 27 28  2  0
 28 29  1  0
 29 30  1  0
 28  3  1  0
 26  5  1  0
 25 13  1  0
 23 18  1  0
M  END
>  <Compound_ID>  (22) 
CHEMBL31733

>  <Active>  (22) 
1

>  <Smiles>  (22) 
COc1cc2ncc(C#N)c(Nc3ccc(Oc4ccccc4)cc3)c2cc1OC

>  <canonical_smi>  (22) 
COc1cc2ncc(C#N)c(Nc3ccc(Oc4ccccc4)cc3)c2cc1OC

>  <Set>  (22) 
G2 active

>  <Set_type>  (22) 
Train

>  <MW>  (22) 
397.43

>  <HBD>  (22) 
1

>  <HBA>  (22) 
6

>  <NRB>  (22) 
6

>  <NR>  (22) 
4

>  <NAR>  (22) 
4

>  <PSA>  (22) 
76.4

>  <Standard Type>  (22) 
nan

>  <Standard Relation>  (22) 
nan

>  <Standard Units>  (22) 
nan

>  <Standard Value>  (22) 
nan

>  <Assay ChEMBL ID>  (22) 
nan

>  <Assay Description>  (22) 
nan

>  <BAO Label>  (22) 
nan

>  <bits>  (22) 
<rdkit.DataStructs.cDataStructs.ExplicitBitVect object at 0x000002AD6E995690>

>  <Group>  (22) 
G2

$$$$

     RDKit          2D

 38 42  0  0  0  0  0  0  0  0999 V2000
    3.7500   -1.2990    0.0000 C   0  0  0  0  0  0  0  0  0  0  0  0
    3.0000    0.0000    0.0000 O   0  0  0  0  0  0  0  0  0  0  0  0
    1.5000    0.0000    0.0000 C   0  0  0  0  0  0  0  0  0  0  0  0
    0.7500   -1.2990    0.0000 C   0  0  0  0  0  0  0  0  0  0  0  0
   -0.7500   -1.2990    0.0000 C   0  0  0  0  0  0  0  0  0  0  0  0
   -1.5000   -2.5981    0.0000 C   0  0  0  0  0  0  0  0  0  0  0  0
   -0.7500   -3.8971    0.0000 N   0  0  0  0  0  0  0  0  0  0  0  0
   -1.5000   -5.1962    0.0000 C   0  0  0  0  0  0  0  0  0  0  0  0
   -3.0000   -5.1962    0.0000 C   0  0  0  0  0  0  0  0  0  0  0  0
   -3.7500   -6.4952    0.0000 C   0  0  0  0  0  0  0  0  0  0  0  0
   -3.0000   -7.7942    0.0000 C   0  0  0  0  0  0  0  0  0  0  0  0
   -3.7500   -9.0933    0.0000 S   0  0  0  0  0  0  0  0  0  0  0  0
   -5.2500   -9.0933    0.0000 C   0  0  0  0  0  0  0  0  0  0  0  0
   -6.1317  -10.3068    0.0000 N   0  0  0  0  0  0  0  0  0  0  0  0
   -7.5583   -9.8433    0.0000 C   0  0  0  0  0  0  0  0  0  0  0  0
   -7.5583   -8.3433    0.0000 C   0  0  0  0  0  0  0  0  0  0  0  0
   -6.1317   -7.8797    0.0000 S   0  0  0  0  0  0  0  0  0  0  0  0
   -1.5000   -7.7942    0.0000 C   0  0  0  0  0  0  0  0  0  0  0  0
   -0.7500   -9.0933    0.0000 Cl  0  0  0  0  0  0  0  0  0  0  0  0
   -0.7500   -6.4952    0.0000 C   0  0  0  0  0  0  0  0  0  0  0  0
   -3.0000   -2.5981    0.0000 C   0  0  0  0  0  0  0  0  0  0  0  0
   -3.7500   -3.8971    0.0000 C   0  0  0  0  0  0  0  0  0  0  0  0
   -4.5000   -5.1962    0.0000 N   0  0  0  0  0  0  0  0  0  0  0  0
   -3.7500   -1.2990    0.0000 C   0  0  0  0  0  0  0  0  0  0  0  0
   -3.0000    0.0000    0.0000 N   0  0  0  0  0  0  0  0  0  0  0  0
   -1.5000    0.0000    0.0000 C   0  0  0  0  0  0  0  0  0  0  0  0
   -0.7500    1.2990    0.0000 C   0  0  0  0  0  0  0  0  0  0  0  0
    0.7500    1.2990    0.0000 C   0  0  0  0  0  0  0  0  0  0  0  0
    1.5000    2.5981    0.0000 O   0  0  0  0  0  0  0  0  0  0  0  0
    0.7500    3.8971    0.0000 C   0  0  0  0  0  0  0  0  0  0  0  0
    1.5000    5.1962    0.0000 C   0  0  0  0  0  0  0  0  0  0  0  0
    0.7500    6.4952    0.0000 C   0  0  0  0  0  0  0  0  0  0  0  0
    1.5000    7.7942    0.0000 N   0  0  0  0  0  0  0  0  0  0  0  0
    3.0000    7.7942    0.0000 C   0  0  0  0  0  0  0  0  0  0  0  0
    3.7500    9.0933    0.0000 C   0  0  0  0  0  0  0  0  0  0  0  0
    3.0000   10.3923    0.0000 O   0  0  0  0  0  0  0  0  0  0  0  0
    1.5000   10.3923    0.0000 C   0  0  0  0  0  0  0  0  0  0  0  0
    0.7500    9.0933    0.0000 C   0  0  0  0  0  0  0  0  0  0  0  0
  1  2  1  0
  2  3  1  0
  3  4  2  0
  4  5  1  0
  5  6  2  0
  6  7  1  0
  7  8  1  0
  8  9  2  0
  9 10  1  0
 10 11  2  0
 11 12  1  0
 12 13  1  0
 13 14  2  0
 14 15  1  0
 15 16  2  0
 16 17  1  0
 11 18  1  0
 18 19  1  0
 18 20  2  0
  6 21  1  0
 21 22  1  0
 22 23  3  0
 21 24  2  0
 24 25  1  0
 25 26  2  0
 26 27  1  0
 27 28  2  0
 28 29  1  0
 29 30  1  0
 30 31  1  0
 31 32  1  0
 32 33  1  0
 33 34  1  0
 34 35  1  0
 35 36  1  0
 36 37  1  0
 37 38  1  0
 28  3  1  0
 38 33  1  0
 26  5  1  0
 20  8  1  0
 17 13  1  0
M  END
>  <Compound_ID>  (23) 
CHEMBL102786

>  <Active>  (23) 
1

>  <Smiles>  (23) 
COc1cc2c(Nc3ccc(Sc4nccs4)c(Cl)c3)c(C#N)cnc2cc1OCCCN1CCOCC1

>  <canonical_smi>  (23) 
COc1cc2c(Nc3ccc(Sc4nccs4)c(Cl)c3)c(C#N)cnc2cc1OCCCN1CCOCC1

>  <Set>  (23) 
G2 active

>  <Set_type>  (23) 
Train

>  <MW>  (23) 
568.12

>  <HBD>  (23) 
1

>  <HBA>  (23) 
9

>  <NRB>  (23) 
10

>  <NR>  (23) 
5

>  <NAR>  (23) 
4

>  <PSA>  (23) 
92.53

>  <Standard Type>  (23) 
nan

>  <Standard Relation>  (23) 
nan

>  <Standard Units>  (23) 
nan

>  <Standard Value>  (23) 
nan

>  <Assay ChEMBL ID>  (23) 
nan

>  <Assay Description>  (23) 
nan

>  <BAO Label>  (23) 
nan

>  <bits>  (23) 
<rdkit.DataStructs.cDataStructs.ExplicitBitVect object at 0x000002AD6E995A10>

>  <Group>  (23) 
G2

$$$$

     RDKit          2D

 39 43  0  0  0  0  0  0  0  0999 V2000
    5.1962  -12.6073    0.0000 C   0  0  0  0  0  0  0  0  0  0  0  0
    3.8971  -11.8573    0.0000 C   0  0  0  0  0  0  0  0  0  0  0  0
    2.5981  -12.6073    0.0000 O   0  0  0  0  0  0  0  0  0  0  0  0
    3.8971  -10.3573    0.0000 N   0  0  0  0  0  0  0  0  0  0  0  0
    2.5981   -9.6073    0.0000 C   0  0  0  0  0  0  0  0  0  0  0  0
    1.2990  -10.3573    0.0000 C   0  0  0  0  0  0  0  0  0  0  0  0
   -0.0000   -9.6073    0.0000 C   0  0  0  0  0  0  0  0  0  0  0  0
    0.0000   -8.1073    0.0000 C   0  0  0  0  0  0  0  0  0  0  0  0
    1.2990   -7.3573    0.0000 C   0  0  0  0  0  0  0  0  0  0  0  0
    1.2990   -5.8573    0.0000 C   0  0  0  0  0  0  0  0  0  0  0  0
    2.5981   -5.1073    0.0000 O   0  0  0  0  0  0  0  0  0  0  0  0
   -0.0000   -5.1073    0.0000 N   0  0  0  0  0  0  0  0  0  0  0  0
   -0.0000   -3.6073    0.0000 C   0  0  0  0  0  0  0  0  0  0  0  0
    1.2135   -2.7256    0.0000 C   0  0  0  0  0  0  0  0  0  0  0  0
    0.7500   -1.2990    0.0000 N   0  0  0  0  0  0  0  0  0  0  0  0
    1.5000    0.0000    0.0000 N   0  0  0  0  0  0  0  0  0  0  0  0
    0.7500    1.2990    0.0000 C   0  0  0  0  0  0  0  0  0  0  0  0
   -0.7500    1.2990    0.0000 C   0  0  0  0  0  0  0  0  0  0  0  0
   -1.5000    2.5981    0.0000 C   0  0  0  0  0  0  0  0  0  0  0  0
   -2.2500    3.8971    0.0000 N   0  0  0  0  0  0  0  0  0  0  0  0
   -1.5000    0.0000    0.0000 C   0  0  0  0  0  0  0  0  0  0  0  0
   -3.0000    0.0000    0.0000 N   0  0  0  0  0  0  0  0  0  0  0  0
   -3.7500    1.2990    0.0000 C   0  0  0  0  0  0  0  0  0  0  0  0
   -3.0000    2.5981    0.0000 C   0  0  0  0  0  0  0  0  0  0  0  0
   -3.7500    3.8971    0.0000 C   0  0  0  0  0  0  0  0  0  0  0  0
   -5.2500    3.8971    0.0000 C   0  0  0  0  0  0  0  0  0  0  0  0
   -6.0000    5.1962    0.0000 O   0  0  0  0  0  0  0  0  0  0  0  0
   -5.2500    6.4952    0.0000 C   0  0  0  0  0  0  0  0  0  0  0  0
   -3.7500    6.4952    0.0000 C   0  0  0  0  0  0  0  0  0  0  0  0
   -3.0000    7.7942    0.0000 C   0  0  0  0  0  0  0  0  0  0  0  0
   -3.7500    9.0933    0.0000 C   0  0  0  0  0  0  0  0  0  0  0  0
   -5.2500    9.0933    0.0000 C   0  0  0  0  0  0  0  0  0  0  0  0
   -6.0000    7.7942    0.0000 C   0  0  0  0  0  0  0  0  0  0  0  0
   -6.0000    2.5981    0.0000 C   0  0  0  0  0  0  0  0  0  0  0  0
   -5.2500    1.2990    0.0000 C   0  0  0  0  0  0  0  0  0  0  0  0
   -0.7500   -1.2990    0.0000 C   0  0  0  0  0  0  0  0  0  0  0  0
   -1.2135   -2.7256    0.0000 C   0  0  0  0  0  0  0  0  0  0  0  0
   -2.6401   -3.1891    0.0000 C   0  0  0  0  0  0  0  0  0  0  0  0
    2.5981   -8.1073    0.0000 C   0  0  0  0  0  0  0  0  0  0  0  0
  1  2  1  0
  2  3  2  0
  2  4  1  0
  4  5  1  0
  5  6  2  0
  6  7  1  0
  7  8  2  0
  8  9  1  0
  9 10  1  0
 10 11  2  0
 10 12  1  0
 12 13  1  0
 13 14  2  0
 14 15  1  0
 15 16  1  0
 16 17  2  0
 17 18  1  0
 18 19  1  0
 19 20  3  0
 18 21  2  0
 21 22  1  0
 22 23  1  0
 23 24  2  0
 24 25  1  0
 25 26  2  0
 26 27  1  0
 27 28  1  0
 28 29  2  0
 29 30  1  0
 30 31  2  0
 31 32  1  0
 32 33  2  0
 26 34  1  0
 34 35  2  0
 21 36  1  0
 36 37  2  0
 37 38  1  0
  9 39  2  0
 39  5  1  0
 37 13  1  0
 36 15  1  0
 35 23  1  0
 33 28  1  0
M  END
>  <Compound_ID>  (24) 
CHEMBL202286

>  <Active>  (24) 
1

>  <Smiles>  (24) 
CC(=O)Nc1cccc(C(=O)Nc2cn3ncc(C#N)c(Nc4ccc(Oc5ccccc5)cc4)c3c2C)c1

>  <canonical_smi>  (24) 
CC(=O)Nc1cccc(C(=O)Nc2cn3ncc(C#N)c(Nc4ccc(Oc5ccccc5)cc4)c3c2C)c1

>  <Set>  (24) 
G2 active

>  <Set_type>  (24) 
Train

>  <MW>  (24) 
516.56

>  <HBD>  (24) 
3

>  <HBA>  (24) 
6

>  <NRB>  (24) 
7

>  <NR>  (24) 
5

>  <NAR>  (24) 
5

>  <PSA>  (24) 
120.55

>  <Standard Type>  (24) 
nan

>  <Standard Relation>  (24) 
nan

>  <Standard Units>  (24) 
nan

>  <Standard Value>  (24) 
nan

>  <Assay ChEMBL ID>  (24) 
nan

>  <Assay Description>  (24) 
nan

>  <BAO Label>  (24) 
nan

>  <bits>  (24) 
<rdkit.DataStructs.cDataStructs.ExplicitBitVect object at 0x000002AD6E996880>

>  <Group>  (24) 
G2

$$$$

     RDKit          2D

 26 28  0  0  0  0  0  0  0  0999 V2000
    2.2500   -6.4952    0.0000 N   0  0  0  0  0  0  0  0  0  0  0  0
    3.0000   -5.1962    0.0000 C   0  0  0  0  0  0  0  0  0  0  0  0
    3.7500   -3.8971    0.0000 C   0  0  0  0  0  0  0  0  0  0  0  0
    3.0000   -2.5981    0.0000 C   0  0  0  0  0  0  0  0  0  0  0  0
    3.7500   -1.2990    0.0000 N   0  0  0  0  0  0  0  0  0  0  0  0
    1.5000   -2.5981    0.0000 S   0  0  0  0  0  0  0  0  0  0  0  0
    0.7500   -1.2990    0.0000 C   0  0  0  0  0  0  0  0  0  0  0  0
    1.5000    0.0000    0.0000 C   0  0  0  0  0  0  0  0  0  0  0  0
    0.7500    1.2990    0.0000 C   0  0  0  0  0  0  0  0  0  0  0  0
   -0.7500    1.2990    0.0000 C   0  0  0  0  0  0  0  0  0  0  0  0
   -1.5000    0.0000    0.0000 C   0  0  0  0  0  0  0  0  0  0  0  0
   -0.7500   -1.2990    0.0000 C   0  0  0  0  0  0  0  0  0  0  0  0
   -1.5000   -2.5981    0.0000 N   0  0  0  0  0  0  0  0  0  0  0  0
    5.2500   -3.8971    0.0000 C   0  0  0  0  0  0  0  0  0  0  0  0
    6.0000   -5.1962    0.0000 C   0  0  0  0  0  0  0  0  0  0  0  0
    7.5000   -5.1962    0.0000 C   0  0  0  0  0  0  0  0  0  0  0  0
    8.2500   -3.8971    0.0000 C   0  0  0  0  0  0  0  0  0  0  0  0
    7.5000   -2.5981    0.0000 C   0  0  0  0  0  0  0  0  0  0  0  0
    8.2500   -1.2990    0.0000 C   0  0  0  0  0  0  0  0  0  0  0  0
    7.5000    0.0000    0.0000 O   0  0  0  0  0  0  0  0  0  0  0  0
    9.7500   -1.2990    0.0000 C   0  0  0  0  0  0  0  0  0  0  0  0
   10.6317   -0.0855    0.0000 C   0  0  0  0  0  0  0  0  0  0  0  0
   12.0583   -0.5490    0.0000 C   0  0  0  0  0  0  0  0  0  0  0  0
   12.0583   -2.0490    0.0000 C   0  0  0  0  0  0  0  0  0  0  0  0
   10.6317   -2.5126    0.0000 S   0  0  0  0  0  0  0  0  0  0  0  0
    6.0000   -2.5981    0.0000 C   0  0  0  0  0  0  0  0  0  0  0  0
  1  2  3  0
  2  3  1  0
  3  4  2  0
  4  5  1  0
  4  6  1  0
  6  7  1  0
  7  8  2  0
  8  9  1  0
  9 10  2  0
 10 11  1  0
 11 12  2  0
 12 13  1  0
  3 14  1  0
 14 15  2  0
 15 16  1  0
 16 17  2  0
 17 18  1  0
 18 19  1  0
 19 20  1  0
 19 21  1  0
 21 22  2  0
 22 23  1  0
 23 24  2  0
 24 25  1  0
 18 26  2  0
 12  7  1  0
 26 14  1  0
 25 21  1  0
M  END
>  <Compound_ID>  (25) 
CHEMBL284708

>  <Active>  (25) 
1

>  <Smiles>  (25) 
N#C/C(=C(/N)Sc1ccccc1N)c1cccc(C(O)c2cccs2)c1

>  <canonical_smi>  (25) 
N#C/C(=C(/N)Sc1ccccc1N)c1cccc(C(O)c2cccs2)c1

>  <Set>  (25) 
G2 active

>  <Set_type>  (25) 
Train

>  <MW>  (25) 
379.51

>  <HBD>  (25) 
3

>  <HBA>  (25) 
5

>  <NRB>  (25) 
5

>  <NR>  (25) 
3

>  <NAR>  (25) 
3

>  <PSA>  (25) 
96.06

>  <Standard Type>  (25) 
nan

>  <Standard Relation>  (25) 
nan

>  <Standard Units>  (25) 
nan

>  <Standard Value>  (25) 
nan

>  <Assay ChEMBL ID>  (25) 
nan

>  <Assay Description>  (25) 
nan

>  <BAO Label>  (25) 
nan

>  <bits>  (25) 
<rdkit.DataStructs.cDataStructs.ExplicitBitVect object at 0x000002AD6E995540>

>  <Group>  (25) 
G2

$$$$

     RDKit          2D

 26 28  0  0  0  0  0  0  0  0999 V2000
    2.2500   -6.4952    0.0000 N   0  0  0  0  0  0  0  0  0  0  0  0
    3.0000   -5.1962    0.0000 C   0  0  0  0  0  0  0  0  0  0  0  0
    3.7500   -3.8971    0.0000 C   0  0  0  0  0  0  0  0  0  0  0  0
    3.0000   -2.5981    0.0000 C   0  0  0  0  0  0  0  0  0  0  0  0
    3.7500   -1.2990    0.0000 N   0  0  0  0  0  0  0  0  0  0  0  0
    1.5000   -2.5981    0.0000 S   0  0  0  0  0  0  0  0  0  0  0  0
    0.7500   -1.2990    0.0000 C   0  0  0  0  0  0  0  0  0  0  0  0
    1.5000    0.0000    0.0000 C   0  0  0  0  0  0  0  0  0  0  0  0
    0.7500    1.2990    0.0000 C   0  0  0  0  0  0  0  0  0  0  0  0
   -0.7500    1.2990    0.0000 C   0  0  0  0  0  0  0  0  0  0  0  0
   -1.5000    0.0000    0.0000 C   0  0  0  0  0  0  0  0  0  0  0  0
   -0.7500   -1.2990    0.0000 C   0  0  0  0  0  0  0  0  0  0  0  0
   -1.5000   -2.5981    0.0000 N   0  0  0  0  0  0  0  0  0  0  0  0
    5.2500   -3.8971    0.0000 C   0  0  0  0  0  0  0  0  0  0  0  0
    6.0000   -5.1962    0.0000 C   0  0  0  0  0  0  0  0  0  0  0  0
    7.5000   -5.1962    0.0000 C   0  0  0  0  0  0  0  0  0  0  0  0
    8.2500   -3.8971    0.0000 C   0  0  0  0  0  0  0  0  0  0  0  0
    7.5000   -2.5981    0.0000 C   0  0  0  0  0  0  0  0  0  0  0  0
    8.2500   -1.2990    0.0000 C   0  0  0  0  0  0  0  0  0  0  0  0
    7.5000    0.0000    0.0000 O   0  0  0  0  0  0  0  0  0  0  0  0
    9.7500   -1.2990    0.0000 C   0  0  0  0  0  0  0  0  0  0  0  0
   10.6317   -0.0855    0.0000 C   0  0  0  0  0  0  0  0  0  0  0  0
   12.0583   -0.5490    0.0000 C   0  0  0  0  0  0  0  0  0  0  0  0
   12.0583   -2.0490    0.0000 S   0  0  0  0  0  0  0  0  0  0  0  0
   10.6317   -2.5126    0.0000 C   0  0  0  0  0  0  0  0  0  0  0  0
    6.0000   -2.5981    0.0000 C   0  0  0  0  0  0  0  0  0  0  0  0
  1  2  3  0
  2  3  1  0
  3  4  2  0
  4  5  1  0
  4  6  1  0
  6  7  1  0
  7  8  2  0
  8  9  1  0
  9 10  2  0
 10 11  1  0
 11 12  2  0
 12 13  1  0
  3 14  1  0
 14 15  2  0
 15 16  1  0
 16 17  2  0
 17 18  1  0
 18 19  1  0
 19 20  1  0
 19 21  1  0
 21 22  1  0
 22 23  2  0
 23 24  1  0
 24 25  1  0
 18 26  2  0
 12  7  1  0
 26 14  1  0
 25 21  2  0
M  END
>  <Compound_ID>  (26) 
CHEMBL38195

>  <Active>  (26) 
1

>  <Smiles>  (26) 
N#C/C(=C(/N)Sc1ccccc1N)c1cccc(C(O)c2ccsc2)c1

>  <canonical_smi>  (26) 
N#C/C(=C(/N)Sc1ccccc1N)c1cccc(C(O)c2ccsc2)c1

>  <Set>  (26) 
G2 active

>  <Set_type>  (26) 
Train

>  <MW>  (26) 
379.51

>  <HBD>  (26) 
3

>  <HBA>  (26) 
5

>  <NRB>  (26) 
5

>  <NR>  (26) 
3

>  <NAR>  (26) 
3

>  <PSA>  (26) 
96.06

>  <Standard Type>  (26) 
nan

>  <Standard Relation>  (26) 
nan

>  <Standard Units>  (26) 
nan

>  <Standard Value>  (26) 
nan

>  <Assay ChEMBL ID>  (26) 
nan

>  <Assay Description>  (26) 
nan

>  <BAO Label>  (26) 
nan

>  <bits>  (26) 
<rdkit.DataStructs.cDataStructs.ExplicitBitVect object at 0x000002AD6E995930>

>  <Group>  (26) 
G2

$$$$

     RDKit          2D

 38 42  0  0  0  0  0  0  0  0999 V2000
    3.7500   -1.2990    0.0000 C   0  0  0  0  0  0  0  0  0  0  0  0
    3.0000    0.0000    0.0000 O   0  0  0  0  0  0  0  0  0  0  0  0
    1.5000    0.0000    0.0000 C   0  0  0  0  0  0  0  0  0  0  0  0
    0.7500   -1.2990    0.0000 C   0  0  0  0  0  0  0  0  0  0  0  0
   -0.7500   -1.2990    0.0000 C   0  0  0  0  0  0  0  0  0  0  0  0
   -1.5000   -2.5981    0.0000 C   0  0  0  0  0  0  0  0  0  0  0  0
   -0.7500   -3.8971    0.0000 N   0  0  0  0  0  0  0  0  0  0  0  0
   -1.5000   -5.1962    0.0000 C   0  0  0  0  0  0  0  0  0  0  0  0
   -3.0000   -5.1962    0.0000 C   0  0  0  0  0  0  0  0  0  0  0  0
   -3.7500   -6.4952    0.0000 C   0  0  0  0  0  0  0  0  0  0  0  0
   -3.0000   -7.7942    0.0000 C   0  0  0  0  0  0  0  0  0  0  0  0
   -3.7500   -9.0933    0.0000 S   0  0  0  0  0  0  0  0  0  0  0  0
   -5.2500   -9.0933    0.0000 C   0  0  0  0  0  0  0  0  0  0  0  0
   -6.0000   -7.7942    0.0000 C   0  0  0  0  0  0  0  0  0  0  0  0
   -7.5000   -7.7942    0.0000 C   0  0  0  0  0  0  0  0  0  0  0  0
   -8.2500   -9.0933    0.0000 C   0  0  0  0  0  0  0  0  0  0  0  0
   -7.5000  -10.3923    0.0000 C   0  0  0  0  0  0  0  0  0  0  0  0
   -6.0000  -10.3923    0.0000 C   0  0  0  0  0  0  0  0  0  0  0  0
   -1.5000   -7.7942    0.0000 C   0  0  0  0  0  0  0  0  0  0  0  0
   -0.7500   -6.4952    0.0000 C   0  0  0  0  0  0  0  0  0  0  0  0
   -3.0000   -2.5981    0.0000 C   0  0  0  0  0  0  0  0  0  0  0  0
   -3.7500   -3.8971    0.0000 C   0  0  0  0  0  0  0  0  0  0  0  0
   -4.5000   -5.1962    0.0000 N   0  0  0  0  0  0  0  0  0  0  0  0
   -3.7500   -1.2990    0.0000 C   0  0  0  0  0  0  0  0  0  0  0  0
   -3.0000    0.0000    0.0000 N   0  0  0  0  0  0  0  0  0  0  0  0
   -1.5000    0.0000    0.0000 C   0  0  0  0  0  0  0  0  0  0  0  0
   -0.7500    1.2990    0.0000 C   0  0  0  0  0  0  0  0  0  0  0  0
    0.7500    1.2990    0.0000 C   0  0  0  0  0  0  0  0  0  0  0  0
    1.5000    2.5981    0.0000 O   0  0  0  0  0  0  0  0  0  0  0  0
    0.7500    3.8971    0.0000 C   0  0  0  0  0  0  0  0  0  0  0  0
    1.5000    5.1962    0.0000 C   0  0  0  0  0  0  0  0  0  0  0  0
    0.7500    6.4952    0.0000 C   0  0  0  0  0  0  0  0  0  0  0  0
    1.5000    7.7942    0.0000 N   0  0  0  0  0  0  0  0  0  0  0  0
    3.0000    7.7942    0.0000 C   0  0  0  0  0  0  0  0  0  0  0  0
    3.7500    9.0933    0.0000 C   0  0  0  0  0  0  0  0  0  0  0  0
    3.0000   10.3923    0.0000 O   0  0  0  0  0  0  0  0  0  0  0  0
    1.5000   10.3923    0.0000 C   0  0  0  0  0  0  0  0  0  0  0  0
    0.7500    9.0933    0.0000 C   0  0  0  0  0  0  0  0  0  0  0  0
  1  2  1  0
  2  3  1  0
  3  4  2  0
  4  5  1  0
  5  6  2  0
  6  7  1  0
  7  8  1  0
  8  9  2  0
  9 10  1  0
 10 11  2  0
 11 12  1  0
 12 13  1  0
 13 14  1  0
 14 15  1  0
 15 16  1  0
 16 17  1  0
 17 18  1  0
 11 19  1  0
 19 20  2  0
  6 21  1  0
 21 22  1  0
 22 23  3  0
 21 24  2  0
 24 25  1  0
 25 26  2  0
 26 27  1  0
 27 28  2  0
 28 29  1  0
 29 30  1  0
 30 31  1  0
 31 32  1  0
 32 33  1  0
 33 34  1  0
 34 35  1  0
 35 36  1  0
 36 37  1  0
 37 38  1  0
 28  3  1  0
 38 33  1  0
 26  5  1  0
 20  8  1  0
 18 13  1  0
M  END
>  <Compound_ID>  (27) 
CHEMBL282361

>  <Active>  (27) 
1

>  <Smiles>  (27) 
COc1cc2c(Nc3ccc(SC4CCCCC4)cc3)c(C#N)cnc2cc1OCCCN1CCOCC1

>  <canonical_smi>  (27) 
COc1cc2c(Nc3ccc(SC4CCCCC4)cc3)c(C#N)cnc2cc1OCCCN1CCOCC1

>  <Set>  (27) 
G2 active

>  <Set_type>  (27) 
Train

>  <MW>  (27) 
532.71

>  <HBD>  (27) 
1

>  <HBA>  (27) 
8

>  <NRB>  (27) 
10

>  <NR>  (27) 
5

>  <NAR>  (27) 
3

>  <PSA>  (27) 
79.64

>  <Standard Type>  (27) 
nan

>  <Standard Relation>  (27) 
nan

>  <Standard Units>  (27) 
nan

>  <Standard Value>  (27) 
nan

>  <Assay ChEMBL ID>  (27) 
nan

>  <Assay Description>  (27) 
nan

>  <BAO Label>  (27) 
nan

>  <bits>  (27) 
<rdkit.DataStructs.cDataStructs.ExplicitBitVect object at 0x000002AD6E9953F0>

>  <Group>  (27) 
G2

$$$$

     RDKit          2D

 40 44  0  0  0  0  0  0  0  0999 V2000
   12.0000   -2.5981    0.0000 C   0  0  0  0  0  0  0  0  0  0  0  0
   10.5000   -2.5981    0.0000 O   0  0  0  0  0  0  0  0  0  0  0  0
    9.7500   -3.8971    0.0000 C   0  0  0  0  0  0  0  0  0  0  0  0
   10.5000   -5.1962    0.0000 C   0  0  0  0  0  0  0  0  0  0  0  0
    9.7500   -6.4952    0.0000 C   0  0  0  0  0  0  0  0  0  0  0  0
    8.2500   -6.4952    0.0000 C   0  0  0  0  0  0  0  0  0  0  0  0
    7.5000   -5.1962    0.0000 C   0  0  0  0  0  0  0  0  0  0  0  0
    8.2500   -3.8971    0.0000 C   0  0  0  0  0  0  0  0  0  0  0  0
    7.5000   -2.5981    0.0000 O   0  0  0  0  0  0  0  0  0  0  0  0
    6.0000   -2.5981    0.0000 C   0  0  0  0  0  0  0  0  0  0  0  0
    5.2500   -1.2990    0.0000 C   0  0  0  0  0  0  0  0  0  0  0  0
    3.7500   -1.2990    0.0000 C   0  0  0  0  0  0  0  0  0  0  0  0
    3.0000   -2.5981    0.0000 C   0  0  0  0  0  0  0  0  0  0  0  0
    1.5000   -2.5981    0.0000 N   0  0  0  0  0  0  0  0  0  0  0  0
    0.7500   -1.2990    0.0000 C   0  0  0  0  0  0  0  0  0  0  0  0
    1.5000    0.0000    0.0000 C   0  0  0  0  0  0  0  0  0  0  0  0
    3.0000    0.0000    0.0000 C   0  0  0  0  0  0  0  0  0  0  0  0
    4.5000    0.0000    0.0000 N   0  0  0  0  0  0  0  0  0  0  0  0
    0.7500    1.2990    0.0000 C   0  0  0  0  0  0  0  0  0  0  0  0
   -0.7500    1.2990    0.0000 N   0  0  0  0  0  0  0  0  0  0  0  0
   -1.5000    0.0000    0.0000 N   0  0  0  0  0  0  0  0  0  0  0  0
   -2.9672   -0.3119    0.0000 C   0  0  0  0  0  0  0  0  0  0  0  0
   -3.1240   -1.8037    0.0000 C   0  0  0  0  0  0  0  0  0  0  0  0
   -4.4231   -2.5537    0.0000 N   0  0  0  0  0  0  0  0  0  0  0  0
   -5.7221   -1.8037    0.0000 C   0  0  0  0  0  0  0  0  0  0  0  0
   -5.7221   -0.3037    0.0000 O   0  0  0  0  0  0  0  0  0  0  0  0
   -7.0211   -2.5537    0.0000 N   0  0  0  0  0  0  0  0  0  0  0  0
   -8.3202   -1.8037    0.0000 C   0  0  0  0  0  0  0  0  0  0  0  0
   -9.6192   -2.5537    0.0000 C   0  0  0  0  0  0  0  0  0  0  0  0
  -10.9182   -1.8037    0.0000 N   0  0  0  0  0  0  0  0  0  0  0  0
  -10.9182   -0.3037    0.0000 C   0  0  0  0  0  0  0  0  0  0  0  0
  -12.2173    0.4463    0.0000 C   0  0  0  0  0  0  0  0  0  0  0  0
  -13.5163   -0.3037    0.0000 O   0  0  0  0  0  0  0  0  0  0  0  0
  -13.5163   -1.8037    0.0000 C   0  0  0  0  0  0  0  0  0  0  0  0
  -12.2173   -2.5537    0.0000 C   0  0  0  0  0  0  0  0  0  0  0  0
   -1.7537   -2.4138    0.0000 C   0  0  0  0  0  0  0  0  0  0  0  0
   -1.4418   -3.8810    0.0000 C   0  0  0  0  0  0  0  0  0  0  0  0
   -0.7500   -1.2990    0.0000 C   0  0  0  0  0  0  0  0  0  0  0  0
    3.7500   -3.8971    0.0000 C   0  0  0  0  0  0  0  0  0  0  0  0
    5.2500   -3.8971    0.0000 C   0  0  0  0  0  0  0  0  0  0  0  0
  1  2  1  0
  2  3  1  0
  3  4  2  0
  4  5  1  0
  5  6  2  0
  6  7  1  0
  7  8  2  0
  8  9  1  0
  9 10  1  0
 10 11  2  0
 11 12  1  0
 12 13  2  0
 13 14  1  0
 14 15  1  0
 15 16  2  0
 16 17  1  0
 17 18  3  0
 16 19  1  0
 19 20  2  0
 20 21  1  0
 21 22  1  0
 22 23  2  0
 23 24  1  0
 24 25  1  0
 25 26  2  0
 25 27  1  0
 27 28  1  0
 28 29  1  0
 29 30  1  0
 30 31  1  0
 31 32  1  0
 32 33  1  0
 33 34  1  0
 34 35  1  0
 23 36  1  0
 36 37  1  0
 36 38  2  0
 13 39  1  0
 39 40  2  0
  8  3  1  0
 40 10  1  0
 38 15  1  0
 38 21  1  0
 35 30  1  0
M  END
>  <Compound_ID>  (28) 
CHEMBL202356

>  <Active>  (28) 
1

>  <Smiles>  (28) 
COc1ccccc1Oc1ccc(Nc2c(C#N)cnn3cc(NC(=O)NCCN4CCOCC4)c(C)c23)cc1

>  <canonical_smi>  (28) 
COc1ccccc1Oc1ccc(Nc2c(C#N)cnn3cc(NC(=O)NCCN4CCOCC4)c(C)c23)cc1

>  <Set>  (28) 
G2 active

>  <Set_type>  (28) 
Train

>  <MW>  (28) 
541.61

>  <HBD>  (28) 
3

>  <HBA>  (28) 
8

>  <NRB>  (28) 
9

>  <NR>  (28) 
5

>  <NAR>  (28) 
4

>  <PSA>  (28) 
125.18

>  <Standard Type>  (28) 
nan

>  <Standard Relation>  (28) 
nan

>  <Standard Units>  (28) 
nan

>  <Standard Value>  (28) 
nan

>  <Assay ChEMBL ID>  (28) 
nan

>  <Assay Description>  (28) 
nan

>  <BAO Label>  (28) 
nan

>  <bits>  (28) 
<rdkit.DataStructs.cDataStructs.ExplicitBitVect object at 0x000002AD6E9959A0>

>  <Group>  (28) 
G2

$$$$

     RDKit          2D

 31 34  0  0  0  0  0  0  0  0999 V2000
   -4.5000   -5.1962    0.0000 N   0  0  0  0  0  0  0  0  0  0  0  0
   -3.7500   -6.4952    0.0000 C   0  0  0  0  0  0  0  0  0  0  0  0
   -3.0000   -7.7942    0.0000 C   0  0  0  0  0  0  0  0  0  0  0  0
   -3.7500   -9.0933    0.0000 C   0  0  0  0  0  0  0  0  0  0  0  0
   -3.0000  -10.3923    0.0000 N   0  0  0  0  0  0  0  0  0  0  0  0
   -5.2500   -9.0933    0.0000 S   0  0  0  0  0  0  0  0  0  0  0  0
   -6.0000  -10.3923    0.0000 C   0  0  0  0  0  0  0  0  0  0  0  0
   -7.5000  -10.3923    0.0000 C   0  0  0  0  0  0  0  0  0  0  0  0
   -8.2500  -11.6913    0.0000 C   0  0  0  0  0  0  0  0  0  0  0  0
   -7.5000  -12.9904    0.0000 C   0  0  0  0  0  0  0  0  0  0  0  0
   -6.0000  -12.9904    0.0000 C   0  0  0  0  0  0  0  0  0  0  0  0
   -5.2500  -11.6913    0.0000 C   0  0  0  0  0  0  0  0  0  0  0  0
   -3.7500  -11.6913    0.0000 N   0  0  0  0  0  0  0  0  0  0  0  0
   -1.5000   -7.7942    0.0000 C   0  0  0  0  0  0  0  0  0  0  0  0
   -0.7500   -9.0933    0.0000 C   0  0  0  0  0  0  0  0  0  0  0  0
    0.7500   -9.0933    0.0000 C   0  0  0  0  0  0  0  0  0  0  0  0
    1.5000   -7.7942    0.0000 C   0  0  0  0  0  0  0  0  0  0  0  0
    0.7500   -6.4952    0.0000 C   0  0  0  0  0  0  0  0  0  0  0  0
    1.5000   -5.1962    0.0000 C   0  0  0  0  0  0  0  0  0  0  0  0
    3.0000   -5.1962    0.0000 O   0  0  0  0  0  0  0  0  0  0  0  0
    0.7500   -3.8971    0.0000 C   0  0  0  0  0  0  0  0  0  0  0  0
   -0.7500   -3.8971    0.0000 C   0  0  0  0  0  0  0  0  0  0  0  0
   -1.5000   -2.5981    0.0000 C   0  0  0  0  0  0  0  0  0  0  0  0
   -0.7500   -1.2990    0.0000 C   0  0  0  0  0  0  0  0  0  0  0  0
    0.7500   -1.2990    0.0000 C   0  0  0  0  0  0  0  0  0  0  0  0
    1.5000   -2.5981    0.0000 C   0  0  0  0  0  0  0  0  0  0  0  0
    1.5000    0.0000    0.0000 O   0  0  0  0  0  0  0  0  0  0  0  0
    0.7500    1.2990    0.0000 C   0  0  0  0  0  0  0  0  0  0  0  0
   -0.7500    1.2990    0.0000 C   0  0  0  0  0  0  0  0  0  0  0  0
   -1.5000    0.0000    0.0000 O   0  0  0  0  0  0  0  0  0  0  0  0
   -0.7500   -6.4952    0.0000 C   0  0  0  0  0  0  0  0  0  0  0  0
  1  2  3  0
  2  3  1  0
  3  4  2  0
  4  5  1  0
  4  6  1  0
  6  7  1  0
  7  8  2  0
  8  9  1  0
  9 10  2  0
 10 11  1  0
 11 12  2  0
 12 13  1  0
  3 14  1  0
 14 15  2  0
 15 16  1  0
 16 17  2  0
 17 18  1  0
 18 19  1  0
 19 20  1  0
 19 21  1  0
 21 22  2  0
 22 23  1  0
 23 24  2  0
 24 25  1  0
 25 26  2  0
 25 27  1  0
 27 28  1  0
 28 29  1  0
 29 30  1  0
 18 31  2  0
 12  7  1  0
 31 14  1  0
 26 21  1  0
 30 24  1  0
M  END
>  <Compound_ID>  (29) 
CHEMBL34072

>  <Active>  (29) 
1

>  <Smiles>  (29) 
N#C/C(=C(/N)Sc1ccccc1N)c1cccc(C(O)c2ccc3c(c2)OCCO3)c1

>  <canonical_smi>  (29) 
N#C/C(=C(/N)Sc1ccccc1N)c1cccc(C(O)c2ccc3c(c2)OCCO3)c1

>  <Set>  (29) 
G2 active

>  <Set_type>  (29) 
Train

>  <MW>  (29) 
431.52

>  <HBD>  (29) 
3

>  <HBA>  (29) 
7

>  <NRB>  (29) 
5

>  <NR>  (29) 
4

>  <NAR>  (29) 
3

>  <PSA>  (29) 
114.52

>  <Standard Type>  (29) 
nan

>  <Standard Relation>  (29) 
nan

>  <Standard Units>  (29) 
nan

>  <Standard Value>  (29) 
nan

>  <Assay ChEMBL ID>  (29) 
nan

>  <Assay Description>  (29) 
nan

>  <BAO Label>  (29) 
nan

>  <bits>  (29) 
<rdkit.DataStructs.cDataStructs.ExplicitBitVect object at 0x000002AD6E995700>

>  <Group>  (29) 
G2

$$$$

     RDKit          2D

 32 35  0  0  0  0  0  0  0  0999 V2000
    3.0000    0.0000    0.0000 C   0  0  0  0  0  0  0  0  0  0  0  0
    1.5000    0.0000    0.0000 N   0  0  0  0  0  0  0  0  0  0  0  0
    0.7500   -1.2990    0.0000 C   0  0  0  0  0  0  0  0  0  0  0  0
   -0.7500   -1.2990    0.0000 C   0  0  0  0  0  0  0  0  0  0  0  0
   -1.5000    0.0000    0.0000 N   0  0  0  0  0  0  0  0  0  0  0  0
   -3.0000    0.0000    0.0000 N   0  0  0  0  0  0  0  0  0  0  0  0
   -3.7500    1.2990    0.0000 C   0  0  0  0  0  0  0  0  0  0  0  0
   -3.0000    2.5981    0.0000 N   0  0  0  0  0  0  0  0  0  0  0  0
   -5.2500    1.2990    0.0000 C   0  0  0  0  0  0  0  0  0  0  0  0
   -6.1317    0.0855    0.0000 C   0  0  0  0  0  0  0  0  0  0  0  0
   -5.6682   -1.3411    0.0000 O   0  0  0  0  0  0  0  0  0  0  0  0
   -7.5583    0.5490    0.0000 N   0  0  0  0  0  0  0  0  0  0  0  0
   -7.5583    2.0490    0.0000 S   0  0  0  0  0  0  0  0  0  0  0  0
   -6.1317    2.5126    0.0000 C   0  0  0  0  0  0  0  0  0  0  0  0
   -5.6682    3.9391    0.0000 N   0  0  0  0  0  0  0  0  0  0  0  0
   -6.6718    5.0539    0.0000 C   0  0  0  0  0  0  0  0  0  0  0  0
   -6.2083    6.4805    0.0000 C   0  0  0  0  0  0  0  0  0  0  0  0
   -7.2120    7.5952    0.0000 C   0  0  0  0  0  0  0  0  0  0  0  0
   -8.6792    7.2833    0.0000 C   0  0  0  0  0  0  0  0  0  0  0  0
   -9.6829    8.3980    0.0000 O   0  0  0  0  0  0  0  0  0  0  0  0
   -9.2194    9.8246    0.0000 C   0  0  0  0  0  0  0  0  0  0  0  0
   -7.7522   10.1365    0.0000 C   0  0  0  0  0  0  0  0  0  0  0  0
   -7.2887   11.5631    0.0000 C   0  0  0  0  0  0  0  0  0  0  0  0
   -5.8214   11.8749    0.0000 Cl  0  0  0  0  0  0  0  0  0  0  0  0
   -8.2924   12.6778    0.0000 C   0  0  0  0  0  0  0  0  0  0  0  0
   -9.7596   12.3659    0.0000 C   0  0  0  0  0  0  0  0  0  0  0  0
  -10.2231   10.9393    0.0000 C   0  0  0  0  0  0  0  0  0  0  0  0
  -11.6903   10.6275    0.0000 Cl  0  0  0  0  0  0  0  0  0  0  0  0
   -9.1428    5.8567    0.0000 C   0  0  0  0  0  0  0  0  0  0  0  0
   -8.1391    4.7420    0.0000 C   0  0  0  0  0  0  0  0  0  0  0  0
   -0.7500    1.2990    0.0000 C   0  0  0  0  0  0  0  0  0  0  0  0
    0.7500    1.2990    0.0000 C   0  0  0  0  0  0  0  0  0  0  0  0
  1  2  1  0
  2  3  1  0
  3  4  1  0
  4  5  1  0
  5  6  1  0
  6  7  2  0
  7  8  1  0
  7  9  1  0
  9 10  1  0
 10 11  1  0
 10 12  2  0
 12 13  1  0
 13 14  1  0
 14 15  1  0
 15 16  1  0
 16 17  2  0
 17 18  1  0
 18 19  2  0
 19 20  1  0
 20 21  1  0
 21 22  2  0
 22 23  1  0
 23 24  1  0
 23 25  2  0
 25 26  1  0
 26 27  2  0
 27 28  1  0
 19 29  1  0
 29 30  2  0
  5 31  1  0
 31 32  1  0
 32  2  1  0
 14  9  2  0
 30 16  1  0
 27 21  1  0
M  END
>  <Compound_ID>  (30) 
CHEMBL383858

>  <Active>  (30) 
1

>  <Smiles>  (30) 
CN1CCN(/N=C(\N)c2c(O)nsc2Nc2ccc(Oc3cc(Cl)ccc3Cl)cc2)CC1

>  <canonical_smi>  (30) 
CN1CCN(/N=C(\N)c2c(O)nsc2Nc2ccc(Oc3cc(Cl)ccc3Cl)cc2)CC1

>  <Set>  (30) 
G2 active

>  <Set_type>  (30) 
Train

>  <MW>  (30) 
493.42

>  <HBD>  (30) 
3

>  <HBA>  (30) 
7

>  <NRB>  (30) 
6

>  <NR>  (30) 
4

>  <NAR>  (30) 
3

>  <PSA>  (30) 
99.24

>  <Standard Type>  (30) 
nan

>  <Standard Relation>  (30) 
nan

>  <Standard Units>  (30) 
nan

>  <Standard Value>  (30) 
nan

>  <Assay ChEMBL ID>  (30) 
nan

>  <Assay Description>  (30) 
nan

>  <BAO Label>  (30) 
nan

>  <bits>  (30) 
<rdkit.DataStructs.cDataStructs.ExplicitBitVect object at 0x000002AD6E995A80>

>  <Group>  (30) 
G2

$$$$

     RDKit          2D

 31 34  0  0  0  0  0  0  0  0999 V2000
    3.8310   -4.4646    0.0000 N   0  0  0  0  0  0  0  0  0  0  0  0
    2.8273   -5.5793    0.0000 C   0  0  0  0  0  0  0  0  0  0  0  0
    3.2909   -7.0059    0.0000 N   0  0  0  0  0  0  0  0  0  0  0  0
    4.7581   -7.3178    0.0000 C   0  0  0  0  0  0  0  0  0  0  0  0
    5.2216   -8.7443    0.0000 C   0  0  0  0  0  0  0  0  0  0  0  0
    6.6482   -9.2079    0.0000 C   0  0  0  0  0  0  0  0  0  0  0  0
    6.6482  -10.7079    0.0000 C   0  0  0  0  0  0  0  0  0  0  0  0
    5.2216  -11.1714    0.0000 C   0  0  0  0  0  0  0  0  0  0  0  0
    4.3399   -9.9579    0.0000 O   0  0  0  0  0  0  0  0  0  0  0  0
    1.3601   -5.2674    0.0000 C   0  0  0  0  0  0  0  0  0  0  0  0
    0.2454   -6.2711    0.0000 C   0  0  0  0  0  0  0  0  0  0  0  0
    0.4022   -7.7629    0.0000 O   0  0  0  0  0  0  0  0  0  0  0  0
   -1.0537   -5.5211    0.0000 N   0  0  0  0  0  0  0  0  0  0  0  0
   -0.7418   -4.0539    0.0000 S   0  0  0  0  0  0  0  0  0  0  0  0
    0.7500   -3.8971    0.0000 C   0  0  0  0  0  0  0  0  0  0  0  0
    1.5000   -2.5981    0.0000 N   0  0  0  0  0  0  0  0  0  0  0  0
    0.7500   -1.2990    0.0000 C   0  0  0  0  0  0  0  0  0  0  0  0
    1.5000    0.0000    0.0000 C   0  0  0  0  0  0  0  0  0  0  0  0
    0.7500    1.2990    0.0000 C   0  0  0  0  0  0  0  0  0  0  0  0
   -0.7500    1.2990    0.0000 C   0  0  0  0  0  0  0  0  0  0  0  0
   -1.5000    2.5981    0.0000 O   0  0  0  0  0  0  0  0  0  0  0  0
   -0.7500    3.8971    0.0000 C   0  0  0  0  0  0  0  0  0  0  0  0
    0.7500    3.8971    0.0000 C   0  0  0  0  0  0  0  0  0  0  0  0
    1.5000    5.1962    0.0000 C   0  0  0  0  0  0  0  0  0  0  0  0
    3.0000    5.1962    0.0000 Cl  0  0  0  0  0  0  0  0  0  0  0  0
    0.7500    6.4952    0.0000 C   0  0  0  0  0  0  0  0  0  0  0  0
   -0.7500    6.4952    0.0000 C   0  0  0  0  0  0  0  0  0  0  0  0
   -1.5000    5.1962    0.0000 C   0  0  0  0  0  0  0  0  0  0  0  0
   -3.0000    5.1962    0.0000 Cl  0  0  0  0  0  0  0  0  0  0  0  0
   -1.5000    0.0000    0.0000 C   0  0  0  0  0  0  0  0  0  0  0  0
   -0.7500   -1.2990    0.0000 C   0  0  0  0  0  0  0  0  0  0  0  0
  1  2  1  0
  2  3  2  0
  3  4  1  0
  4  5  1  0
  5  6  1  0
  6  7  1  0
  7  8  1  0
  8  9  1  0
  2 10  1  0
 10 11  1  0
 11 12  1  0
 11 13  2  0
 13 14  1  0
 14 15  1  0
 15 16  1  0
 16 17  1  0
 17 18  2  0
 18 19  1  0
 19 20  2  0
 20 21  1  0
 21 22  1  0
 22 23  2  0
 23 24  1  0
 24 25  1  0
 24 26  2  0
 26 27  1  0
 27 28  2  0
 28 29  1  0
 20 30  1  0
 30 31  2  0
  9  5  1  0
 15 10  2  0
 31 17  1  0
 28 22  1  0
M  END
>  <Compound_ID>  (31) 
CHEMBL216449

>  <Active>  (31) 
1

>  <Smiles>  (31) 
N/C(=N\CC1CCCO1)c1c(O)nsc1Nc1ccc(Oc2cc(Cl)ccc2Cl)cc1

>  <canonical_smi>  (31) 
N/C(=N\CC1CCCO1)c1c(O)nsc1Nc1ccc(Oc2cc(Cl)ccc2Cl)cc1

>  <Set>  (31) 
G2 active

>  <Set_type>  (31) 
Train

>  <MW>  (31) 
479.39

>  <HBD>  (31) 
3

>  <HBA>  (31) 
6

>  <NRB>  (31) 
7

>  <NR>  (31) 
4

>  <NAR>  (31) 
3

>  <PSA>  (31) 
101.99

>  <Standard Type>  (31) 
nan

>  <Standard Relation>  (31) 
nan

>  <Standard Units>  (31) 
nan

>  <Standard Value>  (31) 
nan

>  <Assay ChEMBL ID>  (31) 
nan

>  <Assay Description>  (31) 
nan

>  <BAO Label>  (31) 
nan

>  <bits>  (31) 
<rdkit.DataStructs.cDataStructs.ExplicitBitVect object at 0x000002AD6E995AF0>

>  <Group>  (31) 
G2

$$$$

     RDKit          2D

 32 35  0  0  0  0  0  0  0  0999 V2000
    2.2500   -6.4952    0.0000 N   0  0  0  0  0  0  0  0  0  0  0  0
    3.0000   -5.1962    0.0000 C   0  0  0  0  0  0  0  0  0  0  0  0
    3.7500   -3.8971    0.0000 C   0  0  0  0  0  0  0  0  0  0  0  0
    3.0000   -2.5981    0.0000 C   0  0  0  0  0  0  0  0  0  0  0  0
    3.7500   -1.2990    0.0000 N   0  0  0  0  0  0  0  0  0  0  0  0
    1.5000   -2.5981    0.0000 S   0  0  0  0  0  0  0  0  0  0  0  0
    0.7500   -1.2990    0.0000 C   0  0  0  0  0  0  0  0  0  0  0  0
    1.5000    0.0000    0.0000 C   0  0  0  0  0  0  0  0  0  0  0  0
    0.7500    1.2990    0.0000 C   0  0  0  0  0  0  0  0  0  0  0  0
   -0.7500    1.2990    0.0000 C   0  0  0  0  0  0  0  0  0  0  0  0
   -1.5000    0.0000    0.0000 C   0  0  0  0  0  0  0  0  0  0  0  0
   -0.7500   -1.2990    0.0000 C   0  0  0  0  0  0  0  0  0  0  0  0
   -1.5000   -2.5981    0.0000 N   0  0  0  0  0  0  0  0  0  0  0  0
    5.2500   -3.8971    0.0000 C   0  0  0  0  0  0  0  0  0  0  0  0
    6.0000   -5.1962    0.0000 C   0  0  0  0  0  0  0  0  0  0  0  0
    7.5000   -5.1962    0.0000 C   0  0  0  0  0  0  0  0  0  0  0  0
    8.2500   -3.8971    0.0000 C   0  0  0  0  0  0  0  0  0  0  0  0
    7.5000   -2.5981    0.0000 C   0  0  0  0  0  0  0  0  0  0  0  0
    8.2500   -1.2990    0.0000 C   0  0  0  0  0  0  0  0  0  0  0  0
    7.5000    0.0000    0.0000 O   0  0  0  0  0  0  0  0  0  0  0  0
    9.7500   -1.2990    0.0000 C   0  0  0  0  0  0  0  0  0  0  0  0
   10.5000   -2.5981    0.0000 C   0  0  0  0  0  0  0  0  0  0  0  0
   12.0000   -2.5981    0.0000 C   0  0  0  0  0  0  0  0  0  0  0  0
   12.7500   -1.2990    0.0000 C   0  0  0  0  0  0  0  0  0  0  0  0
   14.2500   -1.2990    0.0000 C   0  0  0  0  0  0  0  0  0  0  0  0
   15.1317   -0.0855    0.0000 N   0  0  0  0  0  0  0  0  0  0  0  0
   16.5583   -0.5490    0.0000 N   0  0  0  0  0  0  0  0  0  0  0  0
   16.5583   -2.0490    0.0000 N   0  0  0  0  0  0  0  0  0  0  0  0
   15.1317   -2.5126    0.0000 N   0  0  0  0  0  0  0  0  0  0  0  0
   12.0000    0.0000    0.0000 C   0  0  0  0  0  0  0  0  0  0  0  0
   10.5000    0.0000    0.0000 C   0  0  0  0  0  0  0  0  0  0  0  0
    6.0000   -2.5981    0.0000 C   0  0  0  0  0  0  0  0  0  0  0  0
  1  2  3  0
  2  3  1  0
  3  4  2  0
  4  5  1  0
  4  6  1  0
  6  7  1  0
  7  8  2  0
  8  9  1  0
  9 10  2  0
 10 11  1  0
 11 12  2  0
 12 13  1  0
  3 14  1  0
 14 15  2  0
 15 16  1  0
 16 17  2  0
 17 18  1  0
 18 19  1  0
 19 20  1  0
 19 21  1  0
 21 22  2  0
 22 23  1  0
 23 24  2  0
 24 25  1  0
 25 26  1  0
 26 27  2  0
 27 28  1  0
 28 29  1  0
 24 30  1  0
 30 31  2  0
 18 32  2  0
 12  7  1  0
 32 14  1  0
 31 21  1  0
 29 25  2  0
M  END
>  <Compound_ID>  (32) 
CHEMBL35029

>  <Active>  (32) 
1

>  <Smiles>  (32) 
N#C/C(=C(/N)Sc1ccccc1N)c1cccc(C(O)c2ccc(-c3nn[nH]n3)cc2)c1

>  <canonical_smi>  (32) 
N#C/C(=C(/N)Sc1ccccc1N)c1cccc(C(O)c2ccc(-c3nn[nH]n3)cc2)c1

>  <Set>  (32) 
G2 active

>  <Set_type>  (32) 
Train

>  <MW>  (32) 
441.52

>  <HBD>  (32) 
4

>  <HBA>  (32) 
8

>  <NRB>  (32) 
6

>  <NR>  (32) 
4

>  <NAR>  (32) 
4

>  <PSA>  (32) 
150.52

>  <Standard Type>  (32) 
nan

>  <Standard Relation>  (32) 
nan

>  <Standard Units>  (32) 
nan

>  <Standard Value>  (32) 
nan

>  <Assay ChEMBL ID>  (32) 
nan

>  <Assay Description>  (32) 
nan

>  <BAO Label>  (32) 
nan

>  <bits>  (32) 
<rdkit.DataStructs.cDataStructs.ExplicitBitVect object at 0x000002AD6E995B60>

>  <Group>  (32) 
G2

$$$$

     RDKit          2D

 26 28  0  0  0  0  0  0  0  0999 V2000
    2.2500   -6.4952    0.0000 N   0  0  0  0  0  0  0  0  0  0  0  0
    3.0000   -5.1962    0.0000 C   0  0  0  0  0  0  0  0  0  0  0  0
    3.7500   -3.8971    0.0000 C   0  0  0  0  0  0  0  0  0  0  0  0
    3.0000   -2.5981    0.0000 C   0  0  0  0  0  0  0  0  0  0  0  0
    3.7500   -1.2990    0.0000 N   0  0  0  0  0  0  0  0  0  0  0  0
    1.5000   -2.5981    0.0000 S   0  0  0  0  0  0  0  0  0  0  0  0
    0.7500   -1.2990    0.0000 C   0  0  0  0  0  0  0  0  0  0  0  0
    1.5000    0.0000    0.0000 C   0  0  0  0  0  0  0  0  0  0  0  0
    0.7500    1.2990    0.0000 C   0  0  0  0  0  0  0  0  0  0  0  0
   -0.7500    1.2990    0.0000 C   0  0  0  0  0  0  0  0  0  0  0  0
   -1.5000    0.0000    0.0000 C   0  0  0  0  0  0  0  0  0  0  0  0
   -0.7500   -1.2990    0.0000 C   0  0  0  0  0  0  0  0  0  0  0  0
   -1.5000   -2.5981    0.0000 N   0  0  0  0  0  0  0  0  0  0  0  0
    5.2500   -3.8971    0.0000 C   0  0  0  0  0  0  0  0  0  0  0  0
    6.0000   -5.1962    0.0000 C   0  0  0  0  0  0  0  0  0  0  0  0
    7.5000   -5.1962    0.0000 C   0  0  0  0  0  0  0  0  0  0  0  0
    8.2500   -3.8971    0.0000 C   0  0  0  0  0  0  0  0  0  0  0  0
    7.5000   -2.5981    0.0000 C   0  0  0  0  0  0  0  0  0  0  0  0
    8.2500   -1.2990    0.0000 O   0  0  0  0  0  0  0  0  0  0  0  0
    9.7500   -1.2990    0.0000 C   0  0  0  0  0  0  0  0  0  0  0  0
   10.5000   -2.5981    0.0000 C   0  0  0  0  0  0  0  0  0  0  0  0
   12.0000   -2.5981    0.0000 C   0  0  0  0  0  0  0  0  0  0  0  0
   12.7500   -1.2990    0.0000 C   0  0  0  0  0  0  0  0  0  0  0  0
   12.0000    0.0000    0.0000 C   0  0  0  0  0  0  0  0  0  0  0  0
   10.5000    0.0000    0.0000 C   0  0  0  0  0  0  0  0  0  0  0  0
    6.0000   -2.5981    0.0000 C   0  0  0  0  0  0  0  0  0  0  0  0
  1  2  3  0
  2  3  1  0
  3  4  2  0
  4  5  1  0
  4  6  1  0
  6  7  1  0
  7  8  2  0
  8  9  1  0
  9 10  2  0
 10 11  1  0
 11 12  2  0
 12 13  1  0
  3 14  1  0
 14 15  2  0
 15 16  1  0
 16 17  2  0
 17 18  1  0
 18 19  1  0
 19 20  1  0
 20 21  2  0
 21 22  1  0
 22 23  2  0
 23 24  1  0
 24 25  2  0
 18 26  2  0
 12  7  1  0
 26 14  1  0
 25 20  1  0
M  END
>  <Compound_ID>  (33) 
CHEMBL37504

>  <Active>  (33) 
1

>  <Smiles>  (33) 
N#C/C(=C(/N)Sc1ccccc1N)c1cccc(Oc2ccccc2)c1

>  <canonical_smi>  (33) 
N#C/C(=C(/N)Sc1ccccc1N)c1cccc(Oc2ccccc2)c1

>  <Set>  (33) 
G2 active

>  <Set_type>  (33) 
Train

>  <MW>  (33) 
359.45

>  <HBD>  (33) 
2

>  <HBA>  (33) 
5

>  <NRB>  (33) 
5

>  <NR>  (33) 
3

>  <NAR>  (33) 
3

>  <PSA>  (33) 
85.06

>  <Standard Type>  (33) 
nan

>  <Standard Relation>  (33) 
nan

>  <Standard Units>  (33) 
nan

>  <Standard Value>  (33) 
nan

>  <Assay ChEMBL ID>  (33) 
nan

>  <Assay Description>  (33) 
nan

>  <BAO Label>  (33) 
nan

>  <bits>  (33) 
<rdkit.DataStructs.cDataStructs.ExplicitBitVect object at 0x000002AD6E995BD0>

>  <Group>  (33) 
G2

$$$$

     RDKit          2D

 27 29  0  0  0  0  0  0  0  0999 V2000
    5.2216   -8.7443    0.0000 C   0  0  0  0  0  0  0  0  0  0  0  0
    4.7581   -7.3178    0.0000 C   0  0  0  0  0  0  0  0  0  0  0  0
    5.7618   -6.2030    0.0000 C   0  0  0  0  0  0  0  0  0  0  0  0
    7.2290   -6.5149    0.0000 O   0  0  0  0  0  0  0  0  0  0  0  0
    3.2909   -7.0059    0.0000 N   0  0  0  0  0  0  0  0  0  0  0  0
    2.8273   -5.5793    0.0000 C   0  0  0  0  0  0  0  0  0  0  0  0
    3.8310   -4.4646    0.0000 N   0  0  0  0  0  0  0  0  0  0  0  0
    1.3601   -5.2674    0.0000 C   0  0  0  0  0  0  0  0  0  0  0  0
    0.2454   -6.2711    0.0000 C   0  0  0  0  0  0  0  0  0  0  0  0
    0.4022   -7.7629    0.0000 O   0  0  0  0  0  0  0  0  0  0  0  0
   -1.0537   -5.5211    0.0000 N   0  0  0  0  0  0  0  0  0  0  0  0
   -0.7418   -4.0539    0.0000 S   0  0  0  0  0  0  0  0  0  0  0  0
    0.7500   -3.8971    0.0000 C   0  0  0  0  0  0  0  0  0  0  0  0
    1.5000   -2.5981    0.0000 N   0  0  0  0  0  0  0  0  0  0  0  0
    0.7500   -1.2990    0.0000 C   0  0  0  0  0  0  0  0  0  0  0  0
    1.5000    0.0000    0.0000 C   0  0  0  0  0  0  0  0  0  0  0  0
    0.7500    1.2990    0.0000 C   0  0  0  0  0  0  0  0  0  0  0  0
   -0.7500    1.2990    0.0000 C   0  0  0  0  0  0  0  0  0  0  0  0
   -1.5000    2.5981    0.0000 S   0  0  0  0  0  0  0  0  0  0  0  0
   -0.7500    3.8971    0.0000 C   0  0  0  0  0  0  0  0  0  0  0  0
    0.7500    3.8971    0.0000 C   0  0  0  0  0  0  0  0  0  0  0  0
    1.5000    5.1962    0.0000 C   0  0  0  0  0  0  0  0  0  0  0  0
    0.7500    6.4952    0.0000 C   0  0  0  0  0  0  0  0  0  0  0  0
   -0.7500    6.4952    0.0000 C   0  0  0  0  0  0  0  0  0  0  0  0
   -1.5000    5.1962    0.0000 C   0  0  0  0  0  0  0  0  0  0  0  0
   -1.5000    0.0000    0.0000 C   0  0  0  0  0  0  0  0  0  0  0  0
   -0.7500   -1.2990    0.0000 C   0  0  0  0  0  0  0  0  0  0  0  0
  1  2  1  0
  2  3  1  0
  3  4  1  0
  2  5  1  0
  5  6  2  0
  6  7  1  0
  6  8  1  0
  8  9  1  0
  9 10  1  0
  9 11  2  0
 11 12  1  0
 12 13  1  0
 13 14  1  0
 14 15  1  0
 15 16  2  0
 16 17  1  0
 17 18  2  0
 18 19  1  0
 19 20  1  0
 20 21  2  0
 21 22  1  0
 22 23  2  0
 23 24  1  0
 24 25  2  0
 18 26  1  0
 26 27  2  0
 13  8  2  0
 27 15  1  0
 25 20  1  0
M  END
>  <Compound_ID>  (34) 
CHEMBL386230

>  <Active>  (34) 
1

>  <Smiles>  (34) 
CC(CO)/N=C(\N)c1c(O)nsc1Nc1ccc(Sc2ccccc2)cc1

>  <canonical_smi>  (34) 
CC(CO)/N=C(\N)c1c(O)nsc1Nc1ccc(Sc2ccccc2)cc1

>  <Set>  (34) 
G2 active

>  <Set_type>  (34) 
Train

>  <MW>  (34) 
400.53

>  <HBD>  (34) 
4

>  <HBA>  (34) 
6

>  <NRB>  (34) 
7

>  <NR>  (34) 
3

>  <NAR>  (34) 
3

>  <PSA>  (34) 
103.76

>  <Standard Type>  (34) 
nan

>  <Standard Relation>  (34) 
nan

>  <Standard Units>  (34) 
nan

>  <Standard Value>  (34) 
nan

>  <Assay ChEMBL ID>  (34) 
nan

>  <Assay Description>  (34) 
nan

>  <BAO Label>  (34) 
nan

>  <bits>  (34) 
<rdkit.DataStructs.cDataStructs.ExplicitBitVect object at 0x000002AD6E995CB0>

>  <Group>  (34) 
G2

$$$$

     RDKit          2D

 31 34  0  0  0  0  0  0  0  0999 V2000
   -9.0000   -2.5981    0.0000 N   0  0  0  0  0  0  0  0  0  0  0  0
   -8.2500   -3.8971    0.0000 C   0  0  0  0  0  0  0  0  0  0  0  0
   -7.5000   -5.1962    0.0000 C   0  0  0  0  0  0  0  0  0  0  0  0
   -8.2500   -6.4952    0.0000 C   0  0  0  0  0  0  0  0  0  0  0  0
   -7.5000   -7.7942    0.0000 N   0  0  0  0  0  0  0  0  0  0  0  0
   -9.7500   -6.4952    0.0000 S   0  0  0  0  0  0  0  0  0  0  0  0
  -10.5000   -7.7942    0.0000 C   0  0  0  0  0  0  0  0  0  0  0  0
  -12.0000   -7.7942    0.0000 C   0  0  0  0  0  0  0  0  0  0  0  0
  -12.7500   -9.0933    0.0000 C   0  0  0  0  0  0  0  0  0  0  0  0
  -12.0000  -10.3923    0.0000 C   0  0  0  0  0  0  0  0  0  0  0  0
  -10.5000  -10.3923    0.0000 C   0  0  0  0  0  0  0  0  0  0  0  0
   -9.7500   -9.0933    0.0000 C   0  0  0  0  0  0  0  0  0  0  0  0
   -8.2500   -9.0933    0.0000 N   0  0  0  0  0  0  0  0  0  0  0  0
   -6.0000   -5.1962    0.0000 C   0  0  0  0  0  0  0  0  0  0  0  0
   -5.2500   -6.4952    0.0000 C   0  0  0  0  0  0  0  0  0  0  0  0
   -3.7500   -6.4952    0.0000 C   0  0  0  0  0  0  0  0  0  0  0  0
   -3.0000   -5.1962    0.0000 C   0  0  0  0  0  0  0  0  0  0  0  0
   -3.7500   -3.8971    0.0000 C   0  0  0  0  0  0  0  0  0  0  0  0
   -3.0000   -2.5981    0.0000 C   0  0  0  0  0  0  0  0  0  0  0  0
   -3.7500   -1.2990    0.0000 O   0  0  0  0  0  0  0  0  0  0  0  0
   -1.5000   -2.5981    0.0000 C   0  0  0  0  0  0  0  0  0  0  0  0
   -0.7500   -3.8971    0.0000 C   0  0  0  0  0  0  0  0  0  0  0  0
    0.7500   -3.8971    0.0000 C   0  0  0  0  0  0  0  0  0  0  0  0
    1.5000   -2.5981    0.0000 C   0  0  0  0  0  0  0  0  0  0  0  0
    0.7500   -1.2990    0.0000 C   0  0  0  0  0  0  0  0  0  0  0  0
    1.5000    0.0000    0.0000 C   0  0  0  0  0  0  0  0  0  0  0  0
    0.7500    1.2990    0.0000 C   0  0  0  0  0  0  0  0  0  0  0  0
   -0.7500    1.2990    0.0000 C   0  0  0  0  0  0  0  0  0  0  0  0
   -1.5000    0.0000    0.0000 C   0  0  0  0  0  0  0  0  0  0  0  0
   -0.7500   -1.2990    0.0000 C   0  0  0  0  0  0  0  0  0  0  0  0
   -5.2500   -3.8971    0.0000 C   0  0  0  0  0  0  0  0  0  0  0  0
  1  2  3  0
  2  3  1  0
  3  4  2  0
  4  5  1  0
  4  6  1  0
  6  7  1  0
  7  8  2  0
  8  9  1  0
  9 10  2  0
 10 11  1  0
 11 12  2  0
 12 13  1  0
  3 14  1  0
 14 15  2  0
 15 16  1  0
 16 17  2  0
 17 18  1  0
 18 19  1  0
 19 20  1  0
 19 21  1  0
 21 22  2  0
 22 23  1  0
 23 24  2  0
 24 25  1  0
 25 26  2  0
 26 27  1  0
 27 28  2  0
 28 29  1  0
 29 30  2  0
 18 31  2  0
 12  7  1  0
 31 14  1  0
 30 21  1  0
 30 25  1  0
M  END
>  <Compound_ID>  (35) 
CHEMBL33906

>  <Active>  (35) 
1

>  <Smiles>  (35) 
N#C/C(=C(/N)Sc1ccccc1N)c1cccc(C(O)c2cccc3ccccc23)c1

>  <canonical_smi>  (35) 
N#C/C(=C(/N)Sc1ccccc1N)c1cccc(C(O)c2cccc3ccccc23)c1

>  <Set>  (35) 
G2 active

>  <Set_type>  (35) 
Train

>  <MW>  (35) 
423.54

>  <HBD>  (35) 
3

>  <HBA>  (35) 
5

>  <NRB>  (35) 
5

>  <NR>  (35) 
4

>  <NAR>  (35) 
4

>  <PSA>  (35) 
96.06

>  <Standard Type>  (35) 
nan

>  <Standard Relation>  (35) 
nan

>  <Standard Units>  (35) 
nan

>  <Standard Value>  (35) 
nan

>  <Assay ChEMBL ID>  (35) 
nan

>  <Assay Description>  (35) 
nan

>  <BAO Label>  (35) 
nan

>  <bits>  (35) 
<rdkit.DataStructs.cDataStructs.ExplicitBitVect object at 0x000002AD6E995D20>

>  <Group>  (35) 
G2

$$$$

     RDKit          2D

 26 28  0  0  0  0  0  0  0  0999 V2000
    2.2500   -6.4952    0.0000 N   0  0  0  0  0  0  0  0  0  0  0  0
    3.0000   -5.1962    0.0000 C   0  0  0  0  0  0  0  0  0  0  0  0
    3.7500   -3.8971    0.0000 C   0  0  0  0  0  0  0  0  0  0  0  0
    3.0000   -2.5981    0.0000 C   0  0  0  0  0  0  0  0  0  0  0  0
    3.7500   -1.2990    0.0000 N   0  0  0  0  0  0  0  0  0  0  0  0
    1.5000   -2.5981    0.0000 S   0  0  0  0  0  0  0  0  0  0  0  0
    0.7500   -1.2990    0.0000 C   0  0  0  0  0  0  0  0  0  0  0  0
    1.5000    0.0000    0.0000 C   0  0  0  0  0  0  0  0  0  0  0  0
    0.7500    1.2990    0.0000 C   0  0  0  0  0  0  0  0  0  0  0  0
   -0.7500    1.2990    0.0000 C   0  0  0  0  0  0  0  0  0  0  0  0
   -1.5000    0.0000    0.0000 C   0  0  0  0  0  0  0  0  0  0  0  0
   -0.7500   -1.2990    0.0000 C   0  0  0  0  0  0  0  0  0  0  0  0
   -1.5000   -2.5981    0.0000 N   0  0  0  0  0  0  0  0  0  0  0  0
    5.2500   -3.8971    0.0000 C   0  0  0  0  0  0  0  0  0  0  0  0
    6.0000   -5.1962    0.0000 C   0  0  0  0  0  0  0  0  0  0  0  0
    7.5000   -5.1962    0.0000 C   0  0  0  0  0  0  0  0  0  0  0  0
    8.2500   -3.8971    0.0000 C   0  0  0  0  0  0  0  0  0  0  0  0
    7.5000   -2.5981    0.0000 C   0  0  0  0  0  0  0  0  0  0  0  0
    8.2500   -1.2990    0.0000 C   0  0  0  0  0  0  0  0  0  0  0  0
    7.5000    0.0000    0.0000 O   0  0  0  0  0  0  0  0  0  0  0  0
    9.7500   -1.2990    0.0000 C   0  0  0  0  0  0  0  0  0  0  0  0
   10.6317   -0.0855    0.0000 C   0  0  0  0  0  0  0  0  0  0  0  0
   12.0583   -0.5490    0.0000 C   0  0  0  0  0  0  0  0  0  0  0  0
   12.0583   -2.0490    0.0000 O   0  0  0  0  0  0  0  0  0  0  0  0
   10.6317   -2.5126    0.0000 C   0  0  0  0  0  0  0  0  0  0  0  0
    6.0000   -2.5981    0.0000 C   0  0  0  0  0  0  0  0  0  0  0  0
  1  2  3  0
  2  3  1  0
  3  4  2  0
  4  5  1  0
  4  6  1  0
  6  7  1  0
  7  8  2  0
  8  9  1  0
  9 10  2  0
 10 11  1  0
 11 12  2  0
 12 13  1  0
  3 14  1  0
 14 15  2  0
 15 16  1  0
 16 17  2  0
 17 18  1  0
 18 19  1  0
 19 20  1  0
 19 21  1  0
 21 22  1  0
 22 23  2  0
 23 24  1  0
 24 25  1  0
 18 26  2  0
 12  7  1  0
 26 14  1  0
 25 21  2  0
M  END
>  <Compound_ID>  (36) 
CHEMBL290886

>  <Active>  (36) 
1

>  <Smiles>  (36) 
N#C/C(=C(/N)Sc1ccccc1N)c1cccc(C(O)c2ccoc2)c1

>  <canonical_smi>  (36) 
N#C/C(=C(/N)Sc1ccccc1N)c1cccc(C(O)c2ccoc2)c1

>  <Set>  (36) 
G2 active

>  <Set_type>  (36) 
Train

>  <MW>  (36) 
363.44

>  <HBD>  (36) 
3

>  <HBA>  (36) 
6

>  <NRB>  (36) 
5

>  <NR>  (36) 
3

>  <NAR>  (36) 
3

>  <PSA>  (36) 
109.2

>  <Standard Type>  (36) 
nan

>  <Standard Relation>  (36) 
nan

>  <Standard Units>  (36) 
nan

>  <Standard Value>  (36) 
nan

>  <Assay ChEMBL ID>  (36) 
nan

>  <Assay Description>  (36) 
nan

>  <BAO Label>  (36) 
nan

>  <bits>  (36) 
<rdkit.DataStructs.cDataStructs.ExplicitBitVect object at 0x000002AD6E995E00>

>  <Group>  (36) 
G2

$$$$

     RDKit          2D

 27 29  0  0  0  0  0  0  0  0999 V2000
    2.2500   -6.4952    0.0000 N   0  0  0  0  0  0  0  0  0  0  0  0
    3.0000   -5.1962    0.0000 C   0  0  0  0  0  0  0  0  0  0  0  0
    3.7500   -3.8971    0.0000 C   0  0  0  0  0  0  0  0  0  0  0  0
    3.0000   -2.5981    0.0000 C   0  0  0  0  0  0  0  0  0  0  0  0
    3.7500   -1.2990    0.0000 N   0  0  0  0  0  0  0  0  0  0  0  0
    1.5000   -2.5981    0.0000 S   0  0  0  0  0  0  0  0  0  0  0  0
    0.7500   -1.2990    0.0000 C   0  0  0  0  0  0  0  0  0  0  0  0
    1.5000    0.0000    0.0000 C   0  0  0  0  0  0  0  0  0  0  0  0
    0.7500    1.2990    0.0000 C   0  0  0  0  0  0  0  0  0  0  0  0
   -0.7500    1.2990    0.0000 C   0  0  0  0  0  0  0  0  0  0  0  0
   -1.5000    0.0000    0.0000 C   0  0  0  0  0  0  0  0  0  0  0  0
   -0.7500   -1.2990    0.0000 C   0  0  0  0  0  0  0  0  0  0  0  0
   -1.5000   -2.5981    0.0000 N   0  0  0  0  0  0  0  0  0  0  0  0
    5.2500   -3.8971    0.0000 C   0  0  0  0  0  0  0  0  0  0  0  0
    6.0000   -5.1962    0.0000 C   0  0  0  0  0  0  0  0  0  0  0  0
    7.5000   -5.1962    0.0000 C   0  0  0  0  0  0  0  0  0  0  0  0
    8.2500   -3.8971    0.0000 C   0  0  0  0  0  0  0  0  0  0  0  0
    7.5000   -2.5981    0.0000 C   0  0  0  0  0  0  0  0  0  0  0  0
    8.2500   -1.2990    0.0000 C   0  0  0  0  0  0  0  0  0  0  0  0
    7.5000    0.0000    0.0000 O   0  0  0  0  0  0  0  0  0  0  0  0
    9.7500   -1.2990    0.0000 C   0  0  0  0  0  0  0  0  0  0  0  0
   10.5000   -2.5981    0.0000 C   0  0  0  0  0  0  0  0  0  0  0  0
   12.0000   -2.5981    0.0000 C   0  0  0  0  0  0  0  0  0  0  0  0
   12.7500   -1.2990    0.0000 C   0  0  0  0  0  0  0  0  0  0  0  0
   12.0000    0.0000    0.0000 C   0  0  0  0  0  0  0  0  0  0  0  0
   10.5000    0.0000    0.0000 C   0  0  0  0  0  0  0  0  0  0  0  0
    6.0000   -2.5981    0.0000 C   0  0  0  0  0  0  0  0  0  0  0  0
  1  2  3  0
  2  3  1  0
  3  4  2  0
  4  5  1  0
  4  6  1  0
  6  7  1  0
  7  8  2  0
  8  9  1  0
  9 10  2  0
 10 11  1  0
 11 12  2  0
 12 13  1  0
  3 14  1  0
 14 15  2  0
 15 16  1  0
 16 17  2  0
 17 18  1  0
 18 19  1  0
 19 20  1  0
 19 21  1  0
 21 22  1  0
 22 23  1  0
 23 24  1  0
 24 25  1  0
 25 26  1  0
 18 27  2  0
 12  7  1  0
 27 14  1  0
 26 21  1  0
M  END
>  <Compound_ID>  (37) 
CHEMBL34601

>  <Active>  (37) 
1

>  <Smiles>  (37) 
N#C/C(=C(/N)Sc1ccccc1N)c1cccc(C(O)C2CCCCC2)c1

>  <canonical_smi>  (37) 
N#C/C(=C(/N)Sc1ccccc1N)c1cccc(C(O)C2CCCCC2)c1

>  <Set>  (37) 
G2 active

>  <Set_type>  (37) 
Train

>  <MW>  (37) 
379.53

>  <HBD>  (37) 
3

>  <HBA>  (37) 
5

>  <NRB>  (37) 
5

>  <NR>  (37) 
3

>  <NAR>  (37) 
2

>  <PSA>  (37) 
96.06

>  <Standard Type>  (37) 
nan

>  <Standard Relation>  (37) 
nan

>  <Standard Units>  (37) 
nan

>  <Standard Value>  (37) 
nan

>  <Assay ChEMBL ID>  (37) 
nan

>  <Assay Description>  (37) 
nan

>  <BAO Label>  (37) 
nan

>  <bits>  (37) 
<rdkit.DataStructs.cDataStructs.ExplicitBitVect object at 0x000002AD6E995EE0>

>  <Group>  (37) 
G2

$$$$

     RDKit          2D

 31 34  0  0  0  0  0  0  0  0999 V2000
   -4.5000    0.0000    0.0000 N   0  0  0  0  0  0  0  0  0  0  0  0
   -5.2500   -1.2990    0.0000 C   0  0  0  0  0  0  0  0  0  0  0  0
   -6.0000   -2.5981    0.0000 C   0  0  0  0  0  0  0  0  0  0  0  0
   -7.5000   -2.5981    0.0000 C   0  0  0  0  0  0  0  0  0  0  0  0
   -8.2500   -3.8971    0.0000 N   0  0  0  0  0  0  0  0  0  0  0  0
   -8.2500   -1.2990    0.0000 S   0  0  0  0  0  0  0  0  0  0  0  0
   -9.7500   -1.2990    0.0000 C   0  0  0  0  0  0  0  0  0  0  0  0
  -10.5000    0.0000    0.0000 C   0  0  0  0  0  0  0  0  0  0  0  0
  -12.0000    0.0000    0.0000 C   0  0  0  0  0  0  0  0  0  0  0  0
  -12.7500   -1.2990    0.0000 C   0  0  0  0  0  0  0  0  0  0  0  0
  -12.0000   -2.5981    0.0000 C   0  0  0  0  0  0  0  0  0  0  0  0
  -10.5000   -2.5981    0.0000 C   0  0  0  0  0  0  0  0  0  0  0  0
   -9.7500   -3.8971    0.0000 N   0  0  0  0  0  0  0  0  0  0  0  0
   -5.2500   -3.8971    0.0000 C   0  0  0  0  0  0  0  0  0  0  0  0
   -6.0000   -5.1962    0.0000 C   0  0  0  0  0  0  0  0  0  0  0  0
   -5.2500   -6.4952    0.0000 C   0  0  0  0  0  0  0  0  0  0  0  0
   -3.7500   -6.4952    0.0000 C   0  0  0  0  0  0  0  0  0  0  0  0
   -3.0000   -5.1962    0.0000 C   0  0  0  0  0  0  0  0  0  0  0  0
   -1.5000   -5.1962    0.0000 C   0  0  0  0  0  0  0  0  0  0  0  0
   -0.7500   -6.4952    0.0000 O   0  0  0  0  0  0  0  0  0  0  0  0
   -0.7500   -3.8971    0.0000 C   0  0  0  0  0  0  0  0  0  0  0  0
    0.7500   -3.8971    0.0000 C   0  0  0  0  0  0  0  0  0  0  0  0
    1.5000   -2.5981    0.0000 C   0  0  0  0  0  0  0  0  0  0  0  0
    0.7500   -1.2990    0.0000 C   0  0  0  0  0  0  0  0  0  0  0  0
    1.5000    0.0000    0.0000 C   0  0  0  0  0  0  0  0  0  0  0  0
    0.7500    1.2990    0.0000 C   0  0  0  0  0  0  0  0  0  0  0  0
   -0.7500    1.2990    0.0000 C   0  0  0  0  0  0  0  0  0  0  0  0
   -1.5000    0.0000    0.0000 C   0  0  0  0  0  0  0  0  0  0  0  0
   -0.7500   -1.2990    0.0000 C   0  0  0  0  0  0  0  0  0  0  0  0
   -1.5000   -2.5981    0.0000 C   0  0  0  0  0  0  0  0  0  0  0  0
   -3.7500   -3.8971    0.0000 C   0  0  0  0  0  0  0  0  0  0  0  0
  1  2  3  0
  2  3  1  0
  3  4  2  0
  4  5  1  0
  4  6  1  0
  6  7  1  0
  7  8  2  0
  8  9  1  0
  9 10  2  0
 10 11  1  0
 11 12  2  0
 12 13  1  0
  3 14  1  0
 14 15  2  0
 15 16  1  0
 16 17  2  0
 17 18  1  0
 18 19  1  0
 19 20  1  0
 19 21  1  0
 21 22  2  0
 22 23  1  0
 23 24  2  0
 24 25  1  0
 25 26  2  0
 26 27  1  0
 27 28  2  0
 28 29  1  0
 29 30  2  0
 18 31  2  0
 12  7  1  0
 31 14  1  0
 30 21  1  0
 29 24  1  0
M  END
>  <Compound_ID>  (38) 
CHEMBL287959

>  <Active>  (38) 
1

>  <Smiles>  (38) 
N#C/C(=C(/N)Sc1ccccc1N)c1cccc(C(O)c2ccc3ccccc3c2)c1

>  <canonical_smi>  (38) 
N#C/C(=C(/N)Sc1ccccc1N)c1cccc(C(O)c2ccc3ccccc3c2)c1

>  <Set>  (38) 
G2 active

>  <Set_type>  (38) 
Train

>  <MW>  (38) 
423.54

>  <HBD>  (38) 
3

>  <HBA>  (38) 
5

>  <NRB>  (38) 
5

>  <NR>  (38) 
4

>  <NAR>  (38) 
4

>  <PSA>  (38) 
96.06

>  <Standard Type>  (38) 
nan

>  <Standard Relation>  (38) 
nan

>  <Standard Units>  (38) 
nan

>  <Standard Value>  (38) 
nan

>  <Assay ChEMBL ID>  (38) 
nan

>  <Assay Description>  (38) 
nan

>  <BAO Label>  (38) 
nan

>  <bits>  (38) 
<rdkit.DataStructs.cDataStructs.ExplicitBitVect object at 0x000002AD6E996180>

>  <Group>  (38) 
G2

$$$$

     RDKit          2D

 27 29  0  0  0  0  0  0  0  0999 V2000
    2.2500   -6.4952    0.0000 N   0  0  0  0  0  0  0  0  0  0  0  0
    3.0000   -5.1962    0.0000 C   0  0  0  0  0  0  0  0  0  0  0  0
    3.7500   -3.8971    0.0000 C   0  0  0  0  0  0  0  0  0  0  0  0
    3.0000   -2.5981    0.0000 C   0  0  0  0  0  0  0  0  0  0  0  0
    3.7500   -1.2990    0.0000 N   0  0  0  0  0  0  0  0  0  0  0  0
    1.5000   -2.5981    0.0000 S   0  0  0  0  0  0  0  0  0  0  0  0
    0.7500   -1.2990    0.0000 C   0  0  0  0  0  0  0  0  0  0  0  0
    1.5000    0.0000    0.0000 C   0  0  0  0  0  0  0  0  0  0  0  0
    0.7500    1.2990    0.0000 C   0  0  0  0  0  0  0  0  0  0  0  0
   -0.7500    1.2990    0.0000 C   0  0  0  0  0  0  0  0  0  0  0  0
   -1.5000    0.0000    0.0000 C   0  0  0  0  0  0  0  0  0  0  0  0
   -0.7500   -1.2990    0.0000 C   0  0  0  0  0  0  0  0  0  0  0  0
   -1.5000   -2.5981    0.0000 N   0  0  0  0  0  0  0  0  0  0  0  0
    5.2500   -3.8971    0.0000 C   0  0  0  0  0  0  0  0  0  0  0  0
    6.0000   -5.1962    0.0000 C   0  0  0  0  0  0  0  0  0  0  0  0
    7.5000   -5.1962    0.0000 C   0  0  0  0  0  0  0  0  0  0  0  0
    8.2500   -3.8971    0.0000 C   0  0  0  0  0  0  0  0  0  0  0  0
    7.5000   -2.5981    0.0000 C   0  0  0  0  0  0  0  0  0  0  0  0
    8.2500   -1.2990    0.0000 C   0  0  0  0  0  0  0  0  0  0  0  0
    7.5000    0.0000    0.0000 O   0  0  0  0  0  0  0  0  0  0  0  0
    9.7500   -1.2990    0.0000 C   0  0  0  0  0  0  0  0  0  0  0  0
   10.5000   -2.5981    0.0000 C   0  0  0  0  0  0  0  0  0  0  0  0
   12.0000   -2.5981    0.0000 C   0  0  0  0  0  0  0  0  0  0  0  0
   12.7500   -1.2990    0.0000 C   0  0  0  0  0  0  0  0  0  0  0  0
   12.0000    0.0000    0.0000 C   0  0  0  0  0  0  0  0  0  0  0  0
   10.5000    0.0000    0.0000 N   0  0  0  0  0  0  0  0  0  0  0  0
    6.0000   -2.5981    0.0000 C   0  0  0  0  0  0  0  0  0  0  0  0
  1  2  3  0
  2  3  1  0
  3  4  2  0
  4  5  1  0
  4  6  1  0
  6  7  1  0
  7  8  2  0
  8  9  1  0
  9 10  2  0
 10 11  1  0
 11 12  2  0
 12 13  1  0
  3 14  1  0
 14 15  2  0
 15 16  1  0
 16 17  2  0
 17 18  1  0
 18 19  1  0
 19 20  1  0
 19 21  1  0
 21 22  2  0
 22 23  1  0
 23 24  2  0
 24 25  1  0
 25 26  2  0
 18 27  2  0
 12  7  1  0
 27 14  1  0
 26 21  1  0
M  END
>  <Compound_ID>  (39) 
CHEMBL418230

>  <Active>  (39) 
1

>  <Smiles>  (39) 
N#C/C(=C(/N)Sc1ccccc1N)c1cccc(C(O)c2ccccn2)c1

>  <canonical_smi>  (39) 
N#C/C(=C(/N)Sc1ccccc1N)c1cccc(C(O)c2ccccn2)c1

>  <Set>  (39) 
G2 active

>  <Set_type>  (39) 
Train

>  <MW>  (39) 
374.47

>  <HBD>  (39) 
3

>  <HBA>  (39) 
6

>  <NRB>  (39) 
5

>  <NR>  (39) 
3

>  <NAR>  (39) 
3

>  <PSA>  (39) 
108.95

>  <Standard Type>  (39) 
nan

>  <Standard Relation>  (39) 
nan

>  <Standard Units>  (39) 
nan

>  <Standard Value>  (39) 
nan

>  <Assay ChEMBL ID>  (39) 
nan

>  <Assay Description>  (39) 
nan

>  <BAO Label>  (39) 
nan

>  <bits>  (39) 
<rdkit.DataStructs.cDataStructs.ExplicitBitVect object at 0x000002AD6E9961F0>

>  <Group>  (39) 
G2

$$$$

     RDKit          2D

 28 30  0  0  0  0  0  0  0  0999 V2000
    5.2216   -8.7443    0.0000 C   0  0  0  0  0  0  0  0  0  0  0  0
    4.7581   -7.3178    0.0000 C   0  0  0  0  0  0  0  0  0  0  0  0
    5.7618   -6.2030    0.0000 C   0  0  0  0  0  0  0  0  0  0  0  0
    7.2290   -6.5149    0.0000 O   0  0  0  0  0  0  0  0  0  0  0  0
    3.2909   -7.0059    0.0000 N   0  0  0  0  0  0  0  0  0  0  0  0
    2.8273   -5.5793    0.0000 C   0  0  0  0  0  0  0  0  0  0  0  0
    3.8310   -4.4646    0.0000 N   0  0  0  0  0  0  0  0  0  0  0  0
    1.3601   -5.2674    0.0000 C   0  0  0  0  0  0  0  0  0  0  0  0
    0.2454   -6.2711    0.0000 C   0  0  0  0  0  0  0  0  0  0  0  0
    0.4022   -7.7629    0.0000 O   0  0  0  0  0  0  0  0  0  0  0  0
   -1.0537   -5.5211    0.0000 N   0  0  0  0  0  0  0  0  0  0  0  0
   -0.7418   -4.0539    0.0000 S   0  0  0  0  0  0  0  0  0  0  0  0
    0.7500   -3.8971    0.0000 C   0  0  0  0  0  0  0  0  0  0  0  0
    1.5000   -2.5981    0.0000 N   0  0  0  0  0  0  0  0  0  0  0  0
    0.7500   -1.2990    0.0000 C   0  0  0  0  0  0  0  0  0  0  0  0
    1.5000    0.0000    0.0000 C   0  0  0  0  0  0  0  0  0  0  0  0
    0.7500    1.2990    0.0000 C   0  0  0  0  0  0  0  0  0  0  0  0
   -0.7500    1.2990    0.0000 C   0  0  0  0  0  0  0  0  0  0  0  0
   -1.5000    2.5981    0.0000 C   0  0  0  0  0  0  0  0  0  0  0  0
   -3.0000    2.5981    0.0000 O   0  0  0  0  0  0  0  0  0  0  0  0
   -0.7500    3.8971    0.0000 C   0  0  0  0  0  0  0  0  0  0  0  0
    0.7500    3.8971    0.0000 C   0  0  0  0  0  0  0  0  0  0  0  0
    1.5000    5.1962    0.0000 C   0  0  0  0  0  0  0  0  0  0  0  0
    0.7500    6.4952    0.0000 C   0  0  0  0  0  0  0  0  0  0  0  0
   -0.7500    6.4952    0.0000 C   0  0  0  0  0  0  0  0  0  0  0  0
   -1.5000    5.1962    0.0000 C   0  0  0  0  0  0  0  0  0  0  0  0
   -1.5000    0.0000    0.0000 C   0  0  0  0  0  0  0  0  0  0  0  0
   -0.7500   -1.2990    0.0000 C   0  0  0  0  0  0  0  0  0  0  0  0
  1  2  1  0
  2  3  1  0
  3  4  1  0
  2  5  1  0
  5  6  2  0
  6  7  1  0
  6  8  1  0
  8  9  1  0
  9 10  1  0
  9 11  2  0
 11 12  1  0
 12 13  1  0
 13 14  1  0
 14 15  1  0
 15 16  2  0
 16 17  1  0
 17 18  2  0
 18 19  1  0
 19 20  2  0
 19 21  1  0
 21 22  2  0
 22 23  1  0
 23 24  2  0
 24 25  1  0
 25 26  2  0
 18 27  1  0
 27 28  2  0
 13  8  2  0
 28 15  1  0
 26 21  1  0
M  END
>  <Compound_ID>  (40) 
CHEMBL217130

>  <Active>  (40) 
1

>  <Smiles>  (40) 
CC(CO)/N=C(\N)c1c(O)nsc1Nc1ccc(C(=O)c2ccccc2)cc1

>  <canonical_smi>  (40) 
CC(CO)/N=C(\N)c1c(O)nsc1Nc1ccc(C(=O)c2ccccc2)cc1

>  <Set>  (40) 
G2 active

>  <Set_type>  (40) 
Train

>  <MW>  (40) 
396.47

>  <HBD>  (40) 
4

>  <HBA>  (40) 
6

>  <NRB>  (40) 
7

>  <NR>  (40) 
3

>  <NAR>  (40) 
3

>  <PSA>  (40) 
120.83

>  <Standard Type>  (40) 
nan

>  <Standard Relation>  (40) 
nan

>  <Standard Units>  (40) 
nan

>  <Standard Value>  (40) 
nan

>  <Assay ChEMBL ID>  (40) 
nan

>  <Assay Description>  (40) 
nan

>  <BAO Label>  (40) 
nan

>  <bits>  (40) 
<rdkit.DataStructs.cDataStructs.ExplicitBitVect object at 0x000002AD6E9962D0>

>  <Group>  (40) 
G2

$$$$

     RDKit          2D

 38 42  0  0  0  0  0  0  0  0999 V2000
    3.7500   -1.2990    0.0000 C   0  0  0  0  0  0  0  0  0  0  0  0
    3.0000    0.0000    0.0000 O   0  0  0  0  0  0  0  0  0  0  0  0
    1.5000    0.0000    0.0000 C   0  0  0  0  0  0  0  0  0  0  0  0
    0.7500   -1.2990    0.0000 C   0  0  0  0  0  0  0  0  0  0  0  0
   -0.7500   -1.2990    0.0000 C   0  0  0  0  0  0  0  0  0  0  0  0
   -1.5000   -2.5981    0.0000 C   0  0  0  0  0  0  0  0  0  0  0  0
   -0.7500   -3.8971    0.0000 N   0  0  0  0  0  0  0  0  0  0  0  0
   -1.5000   -5.1962    0.0000 C   0  0  0  0  0  0  0  0  0  0  0  0
   -3.0000   -5.1962    0.0000 C   0  0  0  0  0  0  0  0  0  0  0  0
   -3.7500   -6.4952    0.0000 C   0  0  0  0  0  0  0  0  0  0  0  0
   -3.0000   -7.7942    0.0000 C   0  0  0  0  0  0  0  0  0  0  0  0
   -3.7500   -9.0933    0.0000 O   0  0  0  0  0  0  0  0  0  0  0  0
   -5.2500   -9.0933    0.0000 C   0  0  0  0  0  0  0  0  0  0  0  0
   -6.0000   -7.7942    0.0000 C   0  0  0  0  0  0  0  0  0  0  0  0
   -7.5000   -7.7942    0.0000 C   0  0  0  0  0  0  0  0  0  0  0  0
   -8.2500   -9.0933    0.0000 C   0  0  0  0  0  0  0  0  0  0  0  0
   -7.5000  -10.3923    0.0000 C   0  0  0  0  0  0  0  0  0  0  0  0
   -6.0000  -10.3923    0.0000 C   0  0  0  0  0  0  0  0  0  0  0  0
   -1.5000   -7.7942    0.0000 C   0  0  0  0  0  0  0  0  0  0  0  0
   -0.7500   -6.4952    0.0000 C   0  0  0  0  0  0  0  0  0  0  0  0
   -3.0000   -2.5981    0.0000 C   0  0  0  0  0  0  0  0  0  0  0  0
   -3.7500   -3.8971    0.0000 C   0  0  0  0  0  0  0  0  0  0  0  0
   -4.5000   -5.1962    0.0000 N   0  0  0  0  0  0  0  0  0  0  0  0
   -3.7500   -1.2990    0.0000 C   0  0  0  0  0  0  0  0  0  0  0  0
   -3.0000    0.0000    0.0000 N   0  0  0  0  0  0  0  0  0  0  0  0
   -1.5000    0.0000    0.0000 C   0  0  0  0  0  0  0  0  0  0  0  0
   -0.7500    1.2990    0.0000 C   0  0  0  0  0  0  0  0  0  0  0  0
    0.7500    1.2990    0.0000 C   0  0  0  0  0  0  0  0  0  0  0  0
    1.5000    2.5981    0.0000 O   0  0  0  0  0  0  0  0  0  0  0  0
    0.7500    3.8971    0.0000 C   0  0  0  0  0  0  0  0  0  0  0  0
    1.5000    5.1962    0.0000 C   0  0  0  0  0  0  0  0  0  0  0  0
    0.7500    6.4952    0.0000 C   0  0  0  0  0  0  0  0  0  0  0  0
    1.5000    7.7942    0.0000 N   0  0  0  0  0  0  0  0  0  0  0  0
    3.0000    7.7942    0.0000 C   0  0  0  0  0  0  0  0  0  0  0  0
    3.7500    9.0933    0.0000 C   0  0  0  0  0  0  0  0  0  0  0  0
    3.0000   10.3923    0.0000 O   0  0  0  0  0  0  0  0  0  0  0  0
    1.5000   10.3923    0.0000 C   0  0  0  0  0  0  0  0  0  0  0  0
    0.7500    9.0933    0.0000 C   0  0  0  0  0  0  0  0  0  0  0  0
  1  2  1  0
  2  3  1  0
  3  4  2  0
  4  5  1  0
  5  6  2  0
  6  7  1  0
  7  8  1  0
  8  9  2  0
  9 10  1  0
 10 11  2  0
 11 12  1  0
 12 13  1  0
 13 14  1  0
 14 15  1  0
 15 16  1  0
 16 17  1  0
 17 18  1  0
 11 19  1  0
 19 20  2  0
  6 21  1  0
 21 22  1  0
 22 23  3  0
 21 24  2  0
 24 25  1  0
 25 26  2  0
 26 27  1  0
 27 28  2  0
 28 29  1  0
 29 30  1  0
 30 31  1  0
 31 32  1  0
 32 33  1  0
 33 34  1  0
 34 35  1  0
 35 36  1  0
 36 37  1  0
 37 38  1  0
 28  3  1  0
 38 33  1  0
 26  5  1  0
 20  8  1  0
 18 13  1  0
M  END
>  <Compound_ID>  (41) 
CHEMBL31149

>  <Active>  (41) 
1

>  <Smiles>  (41) 
COc1cc2c(Nc3ccc(OC4CCCCC4)cc3)c(C#N)cnc2cc1OCCCN1CCOCC1

>  <canonical_smi>  (41) 
COc1cc2c(Nc3ccc(OC4CCCCC4)cc3)c(C#N)cnc2cc1OCCCN1CCOCC1

>  <Set>  (41) 
G2 active

>  <Set_type>  (41) 
Train

>  <MW>  (41) 
516.64

>  <HBD>  (41) 
1

>  <HBA>  (41) 
8

>  <NRB>  (41) 
10

>  <NR>  (41) 
5

>  <NAR>  (41) 
3

>  <PSA>  (41) 
88.87

>  <Standard Type>  (41) 
nan

>  <Standard Relation>  (41) 
nan

>  <Standard Units>  (41) 
nan

>  <Standard Value>  (41) 
nan

>  <Assay ChEMBL ID>  (41) 
nan

>  <Assay Description>  (41) 
nan

>  <BAO Label>  (41) 
nan

>  <bits>  (41) 
<rdkit.DataStructs.cDataStructs.ExplicitBitVect object at 0x000002AD6E996420>

>  <Group>  (41) 
G2

$$$$

     RDKit          2D

 30 33  0  0  0  0  0  0  0  0999 V2000
    3.7500   -1.2990    0.0000 C   0  0  0  0  0  0  0  0  0  0  0  0
    3.0000    0.0000    0.0000 O   0  0  0  0  0  0  0  0  0  0  0  0
    1.5000    0.0000    0.0000 C   0  0  0  0  0  0  0  0  0  0  0  0
    0.7500   -1.2990    0.0000 C   0  0  0  0  0  0  0  0  0  0  0  0
   -0.7500   -1.2990    0.0000 C   0  0  0  0  0  0  0  0  0  0  0  0
   -1.5000   -2.5981    0.0000 N   0  0  0  0  0  0  0  0  0  0  0  0
   -3.0000   -2.5981    0.0000 C   0  0  0  0  0  0  0  0  0  0  0  0
   -3.7500   -1.2990    0.0000 C   0  0  0  0  0  0  0  0  0  0  0  0
   -5.2500   -1.2990    0.0000 C   0  0  0  0  0  0  0  0  0  0  0  0
   -6.7500   -1.2990    0.0000 N   0  0  0  0  0  0  0  0  0  0  0  0
   -3.0000    0.0000    0.0000 C   0  0  0  0  0  0  0  0  0  0  0  0
   -3.7500    1.2990    0.0000 N   0  0  0  0  0  0  0  0  0  0  0  0
   -3.0000    2.5981    0.0000 C   0  0  0  0  0  0  0  0  0  0  0  0
   -1.5000    2.5981    0.0000 C   0  0  0  0  0  0  0  0  0  0  0  0
   -0.7500    3.8971    0.0000 C   0  0  0  0  0  0  0  0  0  0  0  0
   -1.5000    5.1962    0.0000 C   0  0  0  0  0  0  0  0  0  0  0  0
   -0.7500    6.4952    0.0000 N   0  0  0  0  0  0  0  0  0  0  0  0
    0.7500    6.4952    0.0000 C   0  0  0  0  0  0  0  0  0  0  0  0
    1.5000    5.1962    0.0000 C   0  0  0  0  0  0  0  0  0  0  0  0
    3.0000    5.1962    0.0000 C   0  0  0  0  0  0  0  0  0  0  0  0
    3.7500    6.4952    0.0000 C   0  0  0  0  0  0  0  0  0  0  0  0
    3.0000    7.7942    0.0000 C   0  0  0  0  0  0  0  0  0  0  0  0
    1.5000    7.7942    0.0000 C   0  0  0  0  0  0  0  0  0  0  0  0
   -3.0000    5.1962    0.0000 C   0  0  0  0  0  0  0  0  0  0  0  0
   -3.7500    3.8971    0.0000 C   0  0  0  0  0  0  0  0  0  0  0  0
   -1.5000    0.0000    0.0000 C   0  0  0  0  0  0  0  0  0  0  0  0
   -0.7500    1.2990    0.0000 C   0  0  0  0  0  0  0  0  0  0  0  0
    0.7500    1.2990    0.0000 C   0  0  0  0  0  0  0  0  0  0  0  0
    1.5000    2.5981    0.0000 O   0  0  0  0  0  0  0  0  0  0  0  0
    3.0000    2.5981    0.0000 C   0  0  0  0  0  0  0  0  0  0  0  0
  1  2  1  0
  2  3  1  0
  3  4  2  0
  4  5  1  0
  5  6  2  0
  6  7  1  0
  7  8  2  0
  8  9  1  0
  9 10  3  0
  8 11  1  0
 11 12  1  0
 12 13  1  0
 13 14  2  0
 14 15  1  0
 15 16  2  0
 16 17  1  0
 17 18  1  0
 18 19  2  0
 19 20  1  0
 20 21  2  0
 21 22  1  0
 22 23  2  0
 16 24  1  0
 24 25  2  0
 11 26  2  0
 26 27  1  0
 27 28  2  0
 28 29  1  0
 29 30  1  0
 28  3  1  0
 26  5  1  0
 25 13  1  0
 23 18  1  0
M  END
>  <Compound_ID>  (42) 
CHEMBL31639

>  <Active>  (42) 
1

>  <Smiles>  (42) 
COc1cc2ncc(C#N)c(Nc3ccc(Nc4ccccc4)cc3)c2cc1OC

>  <canonical_smi>  (42) 
COc1cc2ncc(C#N)c(Nc3ccc(Nc4ccccc4)cc3)c2cc1OC

>  <Set>  (42) 
G2 active

>  <Set_type>  (42) 
Train

>  <MW>  (42) 
396.45

>  <HBD>  (42) 
2

>  <HBA>  (42) 
6

>  <NRB>  (42) 
6

>  <NR>  (42) 
4

>  <NAR>  (42) 
4

>  <PSA>  (42) 
79.2

>  <Standard Type>  (42) 
nan

>  <Standard Relation>  (42) 
nan

>  <Standard Units>  (42) 
nan

>  <Standard Value>  (42) 
nan

>  <Assay ChEMBL ID>  (42) 
nan

>  <Assay Description>  (42) 
nan

>  <BAO Label>  (42) 
nan

>  <bits>  (42) 
<rdkit.DataStructs.cDataStructs.ExplicitBitVect object at 0x000002AD6E996490>

>  <Group>  (42) 
G2

$$$$

     RDKit          2D

 35 40  0  0  0  0  0  0  0  0999 V2000
   -2.6401   -3.1891    0.0000 C   0  0  0  0  0  0  0  0  0  0  0  0
   -1.2135   -2.7256    0.0000 C   0  0  0  0  0  0  0  0  0  0  0  0
   -0.0000   -3.6073    0.0000 C   0  0  0  0  0  0  0  0  0  0  0  0
   -0.0000   -5.1073    0.0000 C   0  0  0  0  0  0  0  0  0  0  0  0
   -1.2135   -5.9890    0.0000 N   0  0  0  0  0  0  0  0  0  0  0  0
   -0.7500   -7.4156    0.0000 C   0  0  0  0  0  0  0  0  0  0  0  0
   -1.5000   -8.7146    0.0000 C   0  0  0  0  0  0  0  0  0  0  0  0
   -0.7500  -10.0136    0.0000 C   0  0  0  0  0  0  0  0  0  0  0  0
    0.7500  -10.0136    0.0000 C   0  0  0  0  0  0  0  0  0  0  0  0
    1.5000   -8.7146    0.0000 C   0  0  0  0  0  0  0  0  0  0  0  0
    0.7500   -7.4156    0.0000 C   0  0  0  0  0  0  0  0  0  0  0  0
    1.2135   -5.9890    0.0000 N   0  0  0  0  0  0  0  0  0  0  0  0
    1.2135   -2.7256    0.0000 C   0  0  0  0  0  0  0  0  0  0  0  0
    0.7500   -1.2990    0.0000 N   0  0  0  0  0  0  0  0  0  0  0  0
    1.5000    0.0000    0.0000 N   0  0  0  0  0  0  0  0  0  0  0  0
    0.7500    1.2990    0.0000 C   0  0  0  0  0  0  0  0  0  0  0  0
   -0.7500    1.2990    0.0000 C   0  0  0  0  0  0  0  0  0  0  0  0
   -1.5000    2.5981    0.0000 C   0  0  0  0  0  0  0  0  0  0  0  0
   -2.2500    3.8971    0.0000 N   0  0  0  0  0  0  0  0  0  0  0  0
   -1.5000    0.0000    0.0000 C   0  0  0  0  0  0  0  0  0  0  0  0
   -3.0000    0.0000    0.0000 N   0  0  0  0  0  0  0  0  0  0  0  0
   -3.7500    1.2990    0.0000 C   0  0  0  0  0  0  0  0  0  0  0  0
   -3.0000    2.5981    0.0000 C   0  0  0  0  0  0  0  0  0  0  0  0
   -3.7500    3.8971    0.0000 C   0  0  0  0  0  0  0  0  0  0  0  0
   -5.2500    3.8971    0.0000 C   0  0  0  0  0  0  0  0  0  0  0  0
   -6.0000    5.1962    0.0000 O   0  0  0  0  0  0  0  0  0  0  0  0
   -5.2500    6.4952    0.0000 C   0  0  0  0  0  0  0  0  0  0  0  0
   -3.7500    6.4952    0.0000 C   0  0  0  0  0  0  0  0  0  0  0  0
   -3.0000    7.7942    0.0000 C   0  0  0  0  0  0  0  0  0  0  0  0
   -3.7500    9.0933    0.0000 C   0  0  0  0  0  0  0  0  0  0  0  0
   -5.2500    9.0933    0.0000 C   0  0  0  0  0  0  0  0  0  0  0  0
   -6.0000    7.7942    0.0000 C   0  0  0  0  0  0  0  0  0  0  0  0
   -6.0000    2.5981    0.0000 C   0  0  0  0  0  0  0  0  0  0  0  0
   -5.2500    1.2990    0.0000 C   0  0  0  0  0  0  0  0  0  0  0  0
   -0.7500   -1.2990    0.0000 C   0  0  0  0  0  0  0  0  0  0  0  0
  1  2  1  0
  2  3  1  0
  3  4  1  0
  4  5  2  0
  5  6  1  0
  6  7  2  0
  7  8  1  0
  8  9  2  0
  9 10  1  0
 10 11  2  0
 11 12  1  0
  3 13  2  0
 13 14  1  0
 14 15  1  0
 15 16  2  0
 16 17  1  0
 17 18  1  0
 18 19  3  0
 17 20  2  0
 20 21  1  0
 21 22  1  0
 22 23  2  0
 23 24  1  0
 24 25  2  0
 25 26  1  0
 26 27  1  0
 27 28  2  0
 28 29  1  0
 29 30  2  0
 30 31  1  0
 31 32  2  0
 25 33  1  0
 33 34  2  0
 20 35  1  0
 35  2  2  0
 12  4  1  0
 35 14  1  0
 11  6  1  0
 34 22  1  0
 32 27  1  0
M  END
>  <Compound_ID>  (43) 
CHEMBL382616

>  <Active>  (43) 
1

>  <Smiles>  (43) 
Cc1c(-c2nc3ccccc3[nH]2)cn2ncc(C#N)c(Nc3ccc(Oc4ccccc4)cc3)c12

>  <canonical_smi>  (43) 
Cc1c(-c2nc3ccccc3[nH]2)cn2ncc(C#N)c(Nc3ccc(Oc4ccccc4)cc3)c12

>  <Set>  (43) 
G2 active

>  <Set_type>  (43) 
Train

>  <MW>  (43) 
456.51

>  <HBD>  (43) 
2

>  <HBA>  (43) 
5

>  <NRB>  (43) 
5

>  <NR>  (43) 
6

>  <NAR>  (43) 
6

>  <PSA>  (43) 
91.03

>  <Standard Type>  (43) 
nan

>  <Standard Relation>  (43) 
nan

>  <Standard Units>  (43) 
nan

>  <Standard Value>  (43) 
nan

>  <Assay ChEMBL ID>  (43) 
nan

>  <Assay Description>  (43) 
nan

>  <BAO Label>  (43) 
nan

>  <bits>  (43) 
<rdkit.DataStructs.cDataStructs.ExplicitBitVect object at 0x000002AD6E996730>

>  <Group>  (43) 
G2

$$$$

     RDKit          2D

 28 30  0  0  0  0  0  0  0  0999 V2000
    2.2500   -6.4952    0.0000 N   0  0  0  0  0  0  0  0  0  0  0  0
    3.0000   -5.1962    0.0000 C   0  0  0  0  0  0  0  0  0  0  0  0
    3.7500   -3.8971    0.0000 C   0  0  0  0  0  0  0  0  0  0  0  0
    3.0000   -2.5981    0.0000 C   0  0  0  0  0  0  0  0  0  0  0  0
    3.7500   -1.2990    0.0000 N   0  0  0  0  0  0  0  0  0  0  0  0
    1.5000   -2.5981    0.0000 S   0  0  0  0  0  0  0  0  0  0  0  0
    0.7500   -1.2990    0.0000 C   0  0  0  0  0  0  0  0  0  0  0  0
    1.5000    0.0000    0.0000 C   0  0  0  0  0  0  0  0  0  0  0  0
    0.7500    1.2990    0.0000 C   0  0  0  0  0  0  0  0  0  0  0  0
   -0.7500    1.2990    0.0000 C   0  0  0  0  0  0  0  0  0  0  0  0
   -1.5000    0.0000    0.0000 C   0  0  0  0  0  0  0  0  0  0  0  0
   -0.7500   -1.2990    0.0000 C   0  0  0  0  0  0  0  0  0  0  0  0
   -1.5000   -2.5981    0.0000 N   0  0  0  0  0  0  0  0  0  0  0  0
    5.2500   -3.8971    0.0000 C   0  0  0  0  0  0  0  0  0  0  0  0
    6.0000   -5.1962    0.0000 C   0  0  0  0  0  0  0  0  0  0  0  0
    7.5000   -5.1962    0.0000 C   0  0  0  0  0  0  0  0  0  0  0  0
    8.2500   -3.8971    0.0000 C   0  0  0  0  0  0  0  0  0  0  0  0
    7.5000   -2.5981    0.0000 C   0  0  0  0  0  0  0  0  0  0  0  0
    8.2500   -1.2990    0.0000 C   0  0  0  0  0  0  0  0  0  0  0  0
    7.5000    0.0000    0.0000 O   0  0  0  0  0  0  0  0  0  0  0  0
    9.7500   -1.2990    0.0000 C   0  0  0  0  0  0  0  0  0  0  0  0
   10.5000    0.0000    0.0000 C   0  0  0  0  0  0  0  0  0  0  0  0
   12.0000    0.0000    0.0000 C   0  0  0  0  0  0  0  0  0  0  0  0
   12.7500    1.2990    0.0000 C   0  0  0  0  0  0  0  0  0  0  0  0
   12.0000    2.5981    0.0000 C   0  0  0  0  0  0  0  0  0  0  0  0
   10.5000    2.5981    0.0000 C   0  0  0  0  0  0  0  0  0  0  0  0
    9.7500    1.2990    0.0000 C   0  0  0  0  0  0  0  0  0  0  0  0
    6.0000   -2.5981    0.0000 C   0  0  0  0  0  0  0  0  0  0  0  0
  1  2  3  0
  2  3  1  0
  3  4  2  0
  4  5  1  0
  4  6  1  0
  6  7  1  0
  7  8  2  0
  8  9  1  0
  9 10  2  0
 10 11  1  0
 11 12  2  0
 12 13  1  0
  3 14  1  0
 14 15  2  0
 15 16  1  0
 16 17  2  0
 17 18  1  0
 18 19  1  0
 19 20  1  0
 19 21  1  0
 21 22  1  0
 22 23  2  0
 23 24  1  0
 24 25  2  0
 25 26  1  0
 26 27  2  0
 18 28  2  0
 12  7  1  0
 28 14  1  0
 27 22  1  0
M  END
>  <Compound_ID>  (44) 
CHEMBL34436

>  <Active>  (44) 
1

>  <Smiles>  (44) 
N#C/C(=C(/N)Sc1ccccc1N)c1cccc(C(O)Cc2ccccc2)c1

>  <canonical_smi>  (44) 
N#C/C(=C(/N)Sc1ccccc1N)c1cccc(C(O)Cc2ccccc2)c1

>  <Set>  (44) 
G2 active

>  <Set_type>  (44) 
Train

>  <MW>  (44) 
387.51

>  <HBD>  (44) 
3

>  <HBA>  (44) 
5

>  <NRB>  (44) 
6

>  <NR>  (44) 
3

>  <NAR>  (44) 
3

>  <PSA>  (44) 
96.06

>  <Standard Type>  (44) 
nan

>  <Standard Relation>  (44) 
nan

>  <Standard Units>  (44) 
nan

>  <Standard Value>  (44) 
nan

>  <Assay ChEMBL ID>  (44) 
nan

>  <Assay Description>  (44) 
nan

>  <BAO Label>  (44) 
nan

>  <bits>  (44) 
<rdkit.DataStructs.cDataStructs.ExplicitBitVect object at 0x000002AD6E9967A0>

>  <Group>  (44) 
G2

$$$$

     RDKit          2D

 22 23  0  0  0  0  0  0  0  0999 V2000
    3.7500   -1.2990    0.0000 C   0  0  0  0  0  0  0  0  0  0  0  0
    3.0000    0.0000    0.0000 C   0  0  0  0  0  0  0  0  0  0  0  0
    3.7500    1.2990    0.0000 O   0  0  0  0  0  0  0  0  0  0  0  0
    1.5000    0.0000    0.0000 C   0  0  0  0  0  0  0  0  0  0  0  0
    0.7500   -1.2990    0.0000 C   0  0  0  0  0  0  0  0  0  0  0  0
   -0.7500   -1.2990    0.0000 C   0  0  0  0  0  0  0  0  0  0  0  0
   -1.5000    0.0000    0.0000 C   0  0  0  0  0  0  0  0  0  0  0  0
   -0.7500    1.2990    0.0000 C   0  0  0  0  0  0  0  0  0  0  0  0
   -1.5000    2.5981    0.0000 C   0  0  0  0  0  0  0  0  0  0  0  0
   -0.7500    3.8971    0.0000 C   0  0  0  0  0  0  0  0  0  0  0  0
   -0.0000    5.1962    0.0000 N   0  0  0  0  0  0  0  0  0  0  0  0
   -3.0000    2.5981    0.0000 C   0  0  0  0  0  0  0  0  0  0  0  0
   -3.7500    1.2990    0.0000 N   0  0  0  0  0  0  0  0  0  0  0  0
   -3.7500    3.8971    0.0000 S   0  0  0  0  0  0  0  0  0  0  0  0
   -5.2500    3.8971    0.0000 C   0  0  0  0  0  0  0  0  0  0  0  0
   -6.0000    5.1962    0.0000 C   0  0  0  0  0  0  0  0  0  0  0  0
   -7.5000    5.1962    0.0000 C   0  0  0  0  0  0  0  0  0  0  0  0
   -8.2500    3.8971    0.0000 C   0  0  0  0  0  0  0  0  0  0  0  0
   -7.5000    2.5981    0.0000 C   0  0  0  0  0  0  0  0  0  0  0  0
   -6.0000    2.5981    0.0000 C   0  0  0  0  0  0  0  0  0  0  0  0
   -5.2500    1.2990    0.0000 N   0  0  0  0  0  0  0  0  0  0  0  0
    0.7500    1.2990    0.0000 C   0  0  0  0  0  0  0  0  0  0  0  0
  1  2  1  0
  2  3  1  0
  2  4  1  0
  4  5  2  0
  5  6  1  0
  6  7  2  0
  7  8  1  0
  8  9  1  0
  9 10  1  0
 10 11  3  0
  9 12  2  0
 12 13  1  0
 12 14  1  0
 14 15  1  0
 15 16  2  0
 16 17  1  0
 17 18  2  0
 18 19  1  0
 19 20  2  0
 20 21  1  0
  8 22  2  0
 22  4  1  0
 20 15  1  0
M  END
>  <Compound_ID>  (45) 
CHEMBL35988

>  <Active>  (45) 
1

>  <Smiles>  (45) 
CC(O)c1cccc(/C(C#N)=C(\N)Sc2ccccc2N)c1

>  <canonical_smi>  (45) 
CC(O)c1cccc(/C(C#N)=C(\N)Sc2ccccc2N)c1

>  <Set>  (45) 
G2 active

>  <Set_type>  (45) 
Train

>  <MW>  (45) 
311.41

>  <HBD>  (45) 
3

>  <HBA>  (45) 
5

>  <NRB>  (45) 
4

>  <NR>  (45) 
2

>  <NAR>  (45) 
2

>  <PSA>  (45) 
96.06

>  <Standard Type>  (45) 
nan

>  <Standard Relation>  (45) 
nan

>  <Standard Units>  (45) 
nan

>  <Standard Value>  (45) 
nan

>  <Assay ChEMBL ID>  (45) 
nan

>  <Assay Description>  (45) 
nan

>  <BAO Label>  (45) 
nan

>  <bits>  (45) 
<rdkit.DataStructs.cDataStructs.ExplicitBitVect object at 0x000002AD6E996960>

>  <Group>  (45) 
G2

$$$$

     RDKit          2D

 38 42  0  0  0  0  0  0  0  0999 V2000
    3.7500   -1.2990    0.0000 C   0  0  0  0  0  0  0  0  0  0  0  0
    3.0000    0.0000    0.0000 O   0  0  0  0  0  0  0  0  0  0  0  0
    1.5000    0.0000    0.0000 C   0  0  0  0  0  0  0  0  0  0  0  0
    0.7500   -1.2990    0.0000 C   0  0  0  0  0  0  0  0  0  0  0  0
   -0.7500   -1.2990    0.0000 C   0  0  0  0  0  0  0  0  0  0  0  0
   -1.5000   -2.5981    0.0000 C   0  0  0  0  0  0  0  0  0  0  0  0
   -0.7500   -3.8971    0.0000 N   0  0  0  0  0  0  0  0  0  0  0  0
   -1.5000   -5.1962    0.0000 C   0  0  0  0  0  0  0  0  0  0  0  0
   -3.0000   -5.1962    0.0000 C   0  0  0  0  0  0  0  0  0  0  0  0
   -3.7500   -6.4952    0.0000 C   0  0  0  0  0  0  0  0  0  0  0  0
   -3.0000   -7.7942    0.0000 C   0  0  0  0  0  0  0  0  0  0  0  0
   -3.7500   -9.0933    0.0000 C   0  0  0  0  0  0  0  0  0  0  0  0
   -5.2500   -9.0933    0.0000 C   0  0  0  0  0  0  0  0  0  0  0  0
   -6.0000   -7.7942    0.0000 C   0  0  0  0  0  0  0  0  0  0  0  0
   -7.5000   -7.7942    0.0000 C   0  0  0  0  0  0  0  0  0  0  0  0
   -8.2500   -9.0933    0.0000 C   0  0  0  0  0  0  0  0  0  0  0  0
   -7.5000  -10.3923    0.0000 C   0  0  0  0  0  0  0  0  0  0  0  0
   -6.0000  -10.3923    0.0000 C   0  0  0  0  0  0  0  0  0  0  0  0
   -1.5000   -7.7942    0.0000 C   0  0  0  0  0  0  0  0  0  0  0  0
   -0.7500   -6.4952    0.0000 C   0  0  0  0  0  0  0  0  0  0  0  0
   -3.0000   -2.5981    0.0000 C   0  0  0  0  0  0  0  0  0  0  0  0
   -3.7500   -3.8971    0.0000 C   0  0  0  0  0  0  0  0  0  0  0  0
   -4.5000   -5.1962    0.0000 N   0  0  0  0  0  0  0  0  0  0  0  0
   -3.7500   -1.2990    0.0000 C   0  0  0  0  0  0  0  0  0  0  0  0
   -3.0000    0.0000    0.0000 N   0  0  0  0  0  0  0  0  0  0  0  0
   -1.5000    0.0000    0.0000 C   0  0  0  0  0  0  0  0  0  0  0  0
   -0.7500    1.2990    0.0000 C   0  0  0  0  0  0  0  0  0  0  0  0
    0.7500    1.2990    0.0000 C   0  0  0  0  0  0  0  0  0  0  0  0
    1.5000    2.5981    0.0000 O   0  0  0  0  0  0  0  0  0  0  0  0
    0.7500    3.8971    0.0000 C   0  0  0  0  0  0  0  0  0  0  0  0
    1.5000    5.1962    0.0000 C   0  0  0  0  0  0  0  0  0  0  0  0
    0.7500    6.4952    0.0000 C   0  0  0  0  0  0  0  0  0  0  0  0
    1.5000    7.7942    0.0000 N   0  0  0  0  0  0  0  0  0  0  0  0
    3.0000    7.7942    0.0000 C   0  0  0  0  0  0  0  0  0  0  0  0
    3.7500    9.0933    0.0000 C   0  0  0  0  0  0  0  0  0  0  0  0
    3.0000   10.3923    0.0000 O   0  0  0  0  0  0  0  0  0  0  0  0
    1.5000   10.3923    0.0000 C   0  0  0  0  0  0  0  0  0  0  0  0
    0.7500    9.0933    0.0000 C   0  0  0  0  0  0  0  0  0  0  0  0
  1  2  1  0
  2  3  1  0
  3  4  2  0
  4  5  1  0
  5  6  2  0
  6  7  1  0
  7  8  1  0
  8  9  2  0
  9 10  1  0
 10 11  2  0
 11 12  1  0
 12 13  1  0
 13 14  1  0
 14 15  1  0
 15 16  1  0
 16 17  1  0
 17 18  1  0
 11 19  1  0
 19 20  2  0
  6 21  1  0
 21 22  1  0
 22 23  3  0
 21 24  2  0
 24 25  1  0
 25 26  2  0
 26 27  1  0
 27 28  2  0
 28 29  1  0
 29 30  1  0
 30 31  1  0
 31 32  1  0
 32 33  1  0
 33 34  1  0
 34 35  1  0
 35 36  1  0
 36 37  1  0
 37 38  1  0
 28  3  1  0
 38 33  1  0
 26  5  1  0
 20  8  1  0
 18 13  1  0
M  END
>  <Compound_ID>  (46) 
CHEMBL282976

>  <Active>  (46) 
1

>  <Smiles>  (46) 
COc1cc2c(Nc3ccc(CC4CCCCC4)cc3)c(C#N)cnc2cc1OCCCN1CCOCC1

>  <canonical_smi>  (46) 
COc1cc2c(Nc3ccc(CC4CCCCC4)cc3)c(C#N)cnc2cc1OCCCN1CCOCC1

>  <Set>  (46) 
G2 active

>  <Set_type>  (46) 
Train

>  <MW>  (46) 
514.67

>  <HBD>  (46) 
1

>  <HBA>  (46) 
7

>  <NRB>  (46) 
10

>  <NR>  (46) 
5

>  <NAR>  (46) 
3

>  <PSA>  (46) 
79.64

>  <Standard Type>  (46) 
nan

>  <Standard Relation>  (46) 
nan

>  <Standard Units>  (46) 
nan

>  <Standard Value>  (46) 
nan

>  <Assay ChEMBL ID>  (46) 
nan

>  <Assay Description>  (46) 
nan

>  <BAO Label>  (46) 
nan

>  <bits>  (46) 
<rdkit.DataStructs.cDataStructs.ExplicitBitVect object at 0x000002AD6E996E30>

>  <Group>  (46) 
G2

$$$$

     RDKit          2D

 39 43  0  0  0  0  0  0  0  0999 V2000
    3.7500   -1.2990    0.0000 C   0  0  0  0  0  0  0  0  0  0  0  0
    3.0000    0.0000    0.0000 O   0  0  0  0  0  0  0  0  0  0  0  0
    1.5000    0.0000    0.0000 C   0  0  0  0  0  0  0  0  0  0  0  0
    0.7500   -1.2990    0.0000 C   0  0  0  0  0  0  0  0  0  0  0  0
   -0.7500   -1.2990    0.0000 C   0  0  0  0  0  0  0  0  0  0  0  0
   -1.5000   -2.5981    0.0000 C   0  0  0  0  0  0  0  0  0  0  0  0
   -0.7500   -3.8971    0.0000 N   0  0  0  0  0  0  0  0  0  0  0  0
   -1.5000   -5.1962    0.0000 C   0  0  0  0  0  0  0  0  0  0  0  0
   -3.0000   -5.1962    0.0000 C   0  0  0  0  0  0  0  0  0  0  0  0
   -3.7500   -6.4952    0.0000 C   0  0  0  0  0  0  0  0  0  0  0  0
   -3.0000   -7.7942    0.0000 C   0  0  0  0  0  0  0  0  0  0  0  0
   -3.7500   -9.0933    0.0000 C   0  0  0  0  0  0  0  0  0  0  0  0
   -5.2500   -9.0933    0.0000 C   0  0  0  0  0  0  0  0  0  0  0  0
   -6.1317  -10.3068    0.0000 N   0  0  0  0  0  0  0  0  0  0  0  0
   -7.5583   -9.8433    0.0000 C   0  0  0  0  0  0  0  0  0  0  0  0
   -7.5583   -8.3433    0.0000 C   0  0  0  0  0  0  0  0  0  0  0  0
   -6.1317   -7.8797    0.0000 N   0  0  0  0  0  0  0  0  0  0  0  0
   -5.6682   -6.4532    0.0000 C   0  0  0  0  0  0  0  0  0  0  0  0
   -1.5000   -7.7942    0.0000 C   0  0  0  0  0  0  0  0  0  0  0  0
   -0.7500   -9.0933    0.0000 Cl  0  0  0  0  0  0  0  0  0  0  0  0
   -0.7500   -6.4952    0.0000 C   0  0  0  0  0  0  0  0  0  0  0  0
   -3.0000   -2.5981    0.0000 C   0  0  0  0  0  0  0  0  0  0  0  0
   -3.7500   -3.8971    0.0000 C   0  0  0  0  0  0  0  0  0  0  0  0
   -4.5000   -5.1962    0.0000 N   0  0  0  0  0  0  0  0  0  0  0  0
   -3.7500   -1.2990    0.0000 C   0  0  0  0  0  0  0  0  0  0  0  0
   -3.0000    0.0000    0.0000 N   0  0  0  0  0  0  0  0  0  0  0  0
   -1.5000    0.0000    0.0000 C   0  0  0  0  0  0  0  0  0  0  0  0
   -0.7500    1.2990    0.0000 C   0  0  0  0  0  0  0  0  0  0  0  0
    0.7500    1.2990    0.0000 C   0  0  0  0  0  0  0  0  0  0  0  0
    1.5000    2.5981    0.0000 O   0  0  0  0  0  0  0  0  0  0  0  0
    0.7500    3.8971    0.0000 C   0  0  0  0  0  0  0  0  0  0  0  0
    1.5000    5.1962    0.0000 C   0  0  0  0  0  0  0  0  0  0  0  0
    0.7500    6.4952    0.0000 C   0  0  0  0  0  0  0  0  0  0  0  0
    1.5000    7.7942    0.0000 N   0  0  0  0  0  0  0  0  0  0  0  0
    3.0000    7.7942    0.0000 C   0  0  0  0  0  0  0  0  0  0  0  0
    3.7500    9.0933    0.0000 C   0  0  0  0  0  0  0  0  0  0  0  0
    3.0000   10.3923    0.0000 O   0  0  0  0  0  0  0  0  0  0  0  0
    1.5000   10.3923    0.0000 C   0  0  0  0  0  0  0  0  0  0  0  0
    0.7500    9.0933    0.0000 C   0  0  0  0  0  0  0  0  0  0  0  0
  1  2  1  0
  2  3  1  0
  3  4  2  0
  4  5  1  0
  5  6  2  0
  6  7  1  0
  7  8  1  0
  8  9  2  0
  9 10  1  0
 10 11  2  0
 11 12  1  0
 12 13  1  0
 13 14  2  0
 14 15  1  0
 15 16  2  0
 16 17  1  0
 17 18  1  0
 11 19  1  0
 19 20  1  0
 19 21  2  0
  6 22  1  0
 22 23  1  0
 23 24  3  0
 22 25  2  0
 25 26  1  0
 26 27  2  0
 27 28  1  0
 28 29  2  0
 29 30  1  0
 30 31  1  0
 31 32  1  0
 32 33  1  0
 33 34  1  0
 34 35  1  0
 35 36  1  0
 36 37  1  0
 37 38  1  0
 38 39  1  0
 29  3  1  0
 39 34  1  0
 27  5  1  0
 21  8  1  0
 17 13  1  0
M  END
>  <Compound_ID>  (47) 
CHEMBL320688

>  <Active>  (47) 
1

>  <Smiles>  (47) 
COc1cc2c(Nc3ccc(Cc4nccn4C)c(Cl)c3)c(C#N)cnc2cc1OCCCN1CCOCC1

>  <canonical_smi>  (47) 
COc1cc2c(Nc3ccc(Cc4nccn4C)c(Cl)c3)c(C#N)cnc2cc1OCCCN1CCOCC1

>  <Set>  (47) 
G2 active

>  <Set_type>  (47) 
Train

>  <MW>  (47) 
547.06

>  <HBD>  (47) 
1

>  <HBA>  (47) 
8

>  <NRB>  (47) 
10

>  <NR>  (47) 
5

>  <NAR>  (47) 
4

>  <PSA>  (47) 
97.46

>  <Standard Type>  (47) 
nan

>  <Standard Relation>  (47) 
nan

>  <Standard Units>  (47) 
nan

>  <Standard Value>  (47) 
nan

>  <Assay ChEMBL ID>  (47) 
nan

>  <Assay Description>  (47) 
nan

>  <BAO Label>  (47) 
nan

>  <bits>  (47) 
<rdkit.DataStructs.cDataStructs.ExplicitBitVect object at 0x000002AD6E996EA0>

>  <Group>  (47) 
G2

$$$$

     RDKit          2D

 37 41  0  0  0  0  0  0  0  0999 V2000
   -2.6401   -3.1891    0.0000 C   0  0  0  0  0  0  0  0  0  0  0  0
   -1.2135   -2.7256    0.0000 C   0  0  0  0  0  0  0  0  0  0  0  0
   -0.0000   -3.6073    0.0000 C   0  0  0  0  0  0  0  0  0  0  0  0
   -0.0000   -5.1073    0.0000 C   0  0  0  0  0  0  0  0  0  0  0  0
   -1.2990   -5.8573    0.0000 O   0  0  0  0  0  0  0  0  0  0  0  0
    1.2990   -5.8573    0.0000 N   0  0  0  0  0  0  0  0  0  0  0  0
    1.2990   -7.3573    0.0000 C   0  0  0  0  0  0  0  0  0  0  0  0
    2.5981   -8.1073    0.0000 C   0  0  0  0  0  0  0  0  0  0  0  0
    2.5981   -9.6073    0.0000 N   0  0  0  0  0  0  0  0  0  0  0  0
    1.2990  -10.3573    0.0000 C   0  0  0  0  0  0  0  0  0  0  0  0
    1.2990  -11.8573    0.0000 C   0  0  0  0  0  0  0  0  0  0  0  0
    2.5981  -12.6073    0.0000 O   0  0  0  0  0  0  0  0  0  0  0  0
    3.8971  -11.8573    0.0000 C   0  0  0  0  0  0  0  0  0  0  0  0
    3.8971  -10.3573    0.0000 C   0  0  0  0  0  0  0  0  0  0  0  0
    1.2135   -2.7256    0.0000 C   0  0  0  0  0  0  0  0  0  0  0  0
    0.7500   -1.2990    0.0000 N   0  0  0  0  0  0  0  0  0  0  0  0
    1.5000    0.0000    0.0000 N   0  0  0  0  0  0  0  0  0  0  0  0
    0.7500    1.2990    0.0000 C   0  0  0  0  0  0  0  0  0  0  0  0
   -0.7500    1.2990    0.0000 C   0  0  0  0  0  0  0  0  0  0  0  0
   -1.5000    2.5981    0.0000 C   0  0  0  0  0  0  0  0  0  0  0  0
   -2.2500    3.8971    0.0000 N   0  0  0  0  0  0  0  0  0  0  0  0
   -1.5000    0.0000    0.0000 C   0  0  0  0  0  0  0  0  0  0  0  0
   -3.0000    0.0000    0.0000 N   0  0  0  0  0  0  0  0  0  0  0  0
   -3.7500    1.2990    0.0000 C   0  0  0  0  0  0  0  0  0  0  0  0
   -3.0000    2.5981    0.0000 C   0  0  0  0  0  0  0  0  0  0  0  0
   -3.7500    3.8971    0.0000 C   0  0  0  0  0  0  0  0  0  0  0  0
   -5.2500    3.8971    0.0000 C   0  0  0  0  0  0  0  0  0  0  0  0
   -6.0000    5.1962    0.0000 O   0  0  0  0  0  0  0  0  0  0  0  0
   -5.2500    6.4952    0.0000 C   0  0  0  0  0  0  0  0  0  0  0  0
   -3.7500    6.4952    0.0000 C   0  0  0  0  0  0  0  0  0  0  0  0
   -3.0000    7.7942    0.0000 C   0  0  0  0  0  0  0  0  0  0  0  0
   -3.7500    9.0933    0.0000 C   0  0  0  0  0  0  0  0  0  0  0  0
   -5.2500    9.0933    0.0000 C   0  0  0  0  0  0  0  0  0  0  0  0
   -6.0000    7.7942    0.0000 C   0  0  0  0  0  0  0  0  0  0  0  0
   -6.0000    2.5981    0.0000 C   0  0  0  0  0  0  0  0  0  0  0  0
   -5.2500    1.2990    0.0000 C   0  0  0  0  0  0  0  0  0  0  0  0
   -0.7500   -1.2990    0.0000 C   0  0  0  0  0  0  0  0  0  0  0  0
  1  2  1  0
  2  3  1  0
  3  4  1  0
  4  5  2  0
  4  6  1  0
  6  7  1  0
  7  8  1  0
  8  9  1  0
  9 10  1  0
 10 11  1  0
 11 12  1  0
 12 13  1  0
 13 14  1  0
  3 15  2  0
 15 16  1  0
 16 17  1  0
 17 18  2  0
 18 19  1  0
 19 20  1  0
 20 21  3  0
 19 22  2  0
 22 23  1  0
 23 24  1  0
 24 25  2  0
 25 26  1  0
 26 27  2  0
 27 28  1  0
 28 29  1  0
 29 30  2  0
 30 31  1  0
 31 32  2  0
 32 33  1  0
 33 34  2  0
 27 35  1  0
 35 36  2  0
 22 37  1  0
 37  2  2  0
 14  9  1  0
 37 16  1  0
 36 24  1  0
 34 29  1  0
M  END
>  <Compound_ID>  (48) 
CHEMBL201833

>  <Active>  (48) 
1

>  <Smiles>  (48) 
Cc1c(C(=O)NCCN2CCOCC2)cn2ncc(C#N)c(Nc3ccc(Oc4ccccc4)cc3)c12

>  <canonical_smi>  (48) 
Cc1c(C(=O)NCCN2CCOCC2)cn2ncc(C#N)c(Nc3ccc(Oc4ccccc4)cc3)c12

>  <Set>  (48) 
G2 active

>  <Set_type>  (48) 
Train

>  <MW>  (48) 
496.57

>  <HBD>  (48) 
2

>  <HBA>  (48) 
7

>  <NRB>  (48) 
8

>  <NR>  (48) 
5

>  <NAR>  (48) 
4

>  <PSA>  (48) 
103.92

>  <Standard Type>  (48) 
nan

>  <Standard Relation>  (48) 
nan

>  <Standard Units>  (48) 
nan

>  <Standard Value>  (48) 
nan

>  <Assay ChEMBL ID>  (48) 
nan

>  <Assay Description>  (48) 
nan

>  <BAO Label>  (48) 
nan

>  <bits>  (48) 
<rdkit.DataStructs.cDataStructs.ExplicitBitVect object at 0x000002AD6E996F10>

>  <Group>  (48) 
G2

$$$$

     RDKit          2D

 35 39  0  0  0  0  0  0  0  0999 V2000
   -2.2500   -6.4952    0.0000 N   0  0  0  0  0  0  0  0  0  0  0  0
   -1.5000   -5.1962    0.0000 C   0  0  0  0  0  0  0  0  0  0  0  0
   -0.7500   -3.8971    0.0000 C   0  0  0  0  0  0  0  0  0  0  0  0
    0.7500   -3.8971    0.0000 C   0  0  0  0  0  0  0  0  0  0  0  0
    1.5000   -2.5981    0.0000 N   0  0  0  0  0  0  0  0  0  0  0  0
    0.7500   -1.2990    0.0000 C   0  0  0  0  0  0  0  0  0  0  0  0
    1.5000    0.0000    0.0000 C   0  0  0  0  0  0  0  0  0  0  0  0
    0.7500    1.2990    0.0000 N   0  0  0  0  0  0  0  0  0  0  0  0
   -0.7500    1.2990    0.0000 C   0  0  0  0  0  0  0  0  0  0  0  0
   -1.5000    2.5981    0.0000 N   0  0  0  0  0  0  0  0  0  0  0  0
   -0.7500    3.8971    0.0000 C   0  0  0  0  0  0  0  0  0  0  0  0
   -1.5000    5.1962    0.0000 C   0  0  0  0  0  0  0  0  0  0  0  0
   -0.7500    6.4952    0.0000 N   0  0  0  0  0  0  0  0  0  0  0  0
    0.7500    6.4952    0.0000 C   0  0  0  0  0  0  0  0  0  0  0  0
    1.5000    7.7942    0.0000 C   0  0  0  0  0  0  0  0  0  0  0  0
    0.7500    9.0933    0.0000 O   0  0  0  0  0  0  0  0  0  0  0  0
   -0.7500    9.0933    0.0000 C   0  0  0  0  0  0  0  0  0  0  0  0
   -1.5000    7.7942    0.0000 C   0  0  0  0  0  0  0  0  0  0  0  0
   -1.5000    0.0000    0.0000 C   0  0  0  0  0  0  0  0  0  0  0  0
   -0.7500   -1.2990    0.0000 C   0  0  0  0  0  0  0  0  0  0  0  0
   -1.5000   -2.5981    0.0000 C   0  0  0  0  0  0  0  0  0  0  0  0
   -3.0000   -2.5981    0.0000 N   0  0  0  0  0  0  0  0  0  0  0  0
   -3.7500   -1.2990    0.0000 C   0  0  0  0  0  0  0  0  0  0  0  0
   -3.0000    0.0000    0.0000 C   0  0  0  0  0  0  0  0  0  0  0  0
   -3.7500    1.2990    0.0000 C   0  0  0  0  0  0  0  0  0  0  0  0
   -5.2500    1.2990    0.0000 C   0  0  0  0  0  0  0  0  0  0  0  0
   -6.0000    2.5981    0.0000 O   0  0  0  0  0  0  0  0  0  0  0  0
   -5.2500    3.8971    0.0000 C   0  0  0  0  0  0  0  0  0  0  0  0
   -3.7500    3.8971    0.0000 C   0  0  0  0  0  0  0  0  0  0  0  0
   -3.0000    5.1962    0.0000 C   0  0  0  0  0  0  0  0  0  0  0  0
   -3.7500    6.4952    0.0000 C   0  0  0  0  0  0  0  0  0  0  0  0
   -5.2500    6.4952    0.0000 C   0  0  0  0  0  0  0  0  0  0  0  0
   -6.0000    5.1962    0.0000 C   0  0  0  0  0  0  0  0  0  0  0  0
   -6.0000    0.0000    0.0000 C   0  0  0  0  0  0  0  0  0  0  0  0
   -5.2500   -1.2990    0.0000 C   0  0  0  0  0  0  0  0  0  0  0  0
  1  2  3  0
  2  3  1  0
  3  4  2  0
  4  5  1  0
  5  6  2  0
  6  7  1  0
  7  8  2  0
  8  9  1  0
  9 10  1  0
 10 11  1  0
 11 12  1  0
 12 13  1  0
 13 14  1  0
 14 15  1  0
 15 16  1  0
 16 17  1  0
 17 18  1  0
  9 19  2  0
 19 20  1  0
 20 21  2  0
 21 22  1  0
 22 23  1  0
 23 24  2  0
 24 25  1  0
 25 26  2  0
 26 27  1  0
 27 28  1  0
 28 29  2  0
 29 30  1  0
 30 31  2  0
 31 32  1  0
 32 33  2  0
 26 34  1  0
 34 35  2  0
 21  3  1  0
 35 23  1  0
 20  6  1  0
 33 28  1  0
 18 13  1  0
M  END
>  <Compound_ID>  (49) 
CHEMBL371095

>  <Active>  (49) 
1

>  <Smiles>  (49) 
N#Cc1cnc2cnc(NCCN3CCOCC3)cc2c1Nc1ccc(Oc2ccccc2)cc1

>  <canonical_smi>  (49) 
N#Cc1cnc2cnc(NCCN3CCOCC3)cc2c1Nc1ccc(Oc2ccccc2)cc1

>  <Set>  (49) 
G2 active

>  <Set_type>  (49) 
Train

>  <MW>  (49) 
466.55

>  <HBD>  (49) 
2

>  <HBA>  (49) 
8

>  <NRB>  (49) 
8

>  <NR>  (49) 
5

>  <NAR>  (49) 
4

>  <PSA>  (49) 
95.33

>  <Standard Type>  (49) 
nan

>  <Standard Relation>  (49) 
nan

>  <Standard Units>  (49) 
nan

>  <Standard Value>  (49) 
nan

>  <Assay ChEMBL ID>  (49) 
nan

>  <Assay Description>  (49) 
nan

>  <BAO Label>  (49) 
nan

>  <bits>  (49) 
<rdkit.DataStructs.cDataStructs.ExplicitBitVect object at 0x000002AD6E996FF0>

>  <Group>  (49) 
G2

$$$$

     RDKit          2D

 40 44  0  0  0  0  0  0  0  0999 V2000
    3.7500   -1.2990    0.0000 C   0  0  0  0  0  0  0  0  0  0  0  0
    3.0000    0.0000    0.0000 O   0  0  0  0  0  0  0  0  0  0  0  0
    1.5000    0.0000    0.0000 C   0  0  0  0  0  0  0  0  0  0  0  0
    0.7500   -1.2990    0.0000 C   0  0  0  0  0  0  0  0  0  0  0  0
   -0.7500   -1.2990    0.0000 C   0  0  0  0  0  0  0  0  0  0  0  0
   -1.5000   -2.5981    0.0000 C   0  0  0  0  0  0  0  0  0  0  0  0
   -0.7500   -3.8971    0.0000 N   0  0  0  0  0  0  0  0  0  0  0  0
   -1.5000   -5.1962    0.0000 C   0  0  0  0  0  0  0  0  0  0  0  0
   -3.0000   -5.1962    0.0000 C   0  0  0  0  0  0  0  0  0  0  0  0
   -3.7500   -6.4952    0.0000 C   0  0  0  0  0  0  0  0  0  0  0  0
   -3.0000   -7.7942    0.0000 C   0  0  0  0  0  0  0  0  0  0  0  0
   -3.7500   -9.0933    0.0000 S   0  0  0  0  0  0  0  0  0  0  0  0
   -5.2500   -9.0933    0.0000 C   0  0  0  0  0  0  0  0  0  0  0  0
   -6.1317  -10.3068    0.0000 N   0  0  0  0  0  0  0  0  0  0  0  0
   -7.5583   -9.8433    0.0000 C   0  0  0  0  0  0  0  0  0  0  0  0
   -7.5583   -8.3433    0.0000 C   0  0  0  0  0  0  0  0  0  0  0  0
   -6.1317   -7.8797    0.0000 N   0  0  0  0  0  0  0  0  0  0  0  0
   -5.6682   -6.4532    0.0000 C   0  0  0  0  0  0  0  0  0  0  0  0
   -1.5000   -7.7942    0.0000 C   0  0  0  0  0  0  0  0  0  0  0  0
   -0.7500   -9.0933    0.0000 Cl  0  0  0  0  0  0  0  0  0  0  0  0
   -0.7500   -6.4952    0.0000 C   0  0  0  0  0  0  0  0  0  0  0  0
   -3.0000   -2.5981    0.0000 C   0  0  0  0  0  0  0  0  0  0  0  0
   -3.7500   -3.8971    0.0000 C   0  0  0  0  0  0  0  0  0  0  0  0
   -4.5000   -5.1962    0.0000 N   0  0  0  0  0  0  0  0  0  0  0  0
   -3.7500   -1.2990    0.0000 C   0  0  0  0  0  0  0  0  0  0  0  0
   -3.0000    0.0000    0.0000 N   0  0  0  0  0  0  0  0  0  0  0  0
   -1.5000    0.0000    0.0000 C   0  0  0  0  0  0  0  0  0  0  0  0
   -0.7500    1.2990    0.0000 C   0  0  0  0  0  0  0  0  0  0  0  0
    0.7500    1.2990    0.0000 C   0  0  0  0  0  0  0  0  0  0  0  0
    1.5000    2.5981    0.0000 O   0  0  0  0  0  0  0  0  0  0  0  0
    0.7500    3.8971    0.0000 C   0  0  0  0  0  0  0  0  0  0  0  0
    1.5000    5.1962    0.0000 C   0  0  0  0  0  0  0  0  0  0  0  0
    0.7500    6.4952    0.0000 C   0  0  0  0  0  0  0  0  0  0  0  0
    1.5000    7.7942    0.0000 N   0  0  0  0  0  0  0  0  0  0  0  0
    3.0000    7.7942    0.0000 C   0  0  0  0  0  0  0  0  0  0  0  0
    3.7500    9.0933    0.0000 C   0  0  0  0  0  0  0  0  0  0  0  0
    3.0000   10.3923    0.0000 S   0  0  0  0  0  0  0  0  0  0  0  0
    3.7500   11.6913    0.0000 O   0  0  0  0  0  0  0  0  0  0  0  0
    1.5000   10.3923    0.0000 C   0  0  0  0  0  0  0  0  0  0  0  0
    0.7500    9.0933    0.0000 C   0  0  0  0  0  0  0  0  0  0  0  0
  1  2  1  0
  2  3  1  0
  3  4  2  0
  4  5  1  0
  5  6  2  0
  6  7  1  0
  7  8  1  0
  8  9  2  0
  9 10  1  0
 10 11  2  0
 11 12  1  0
 12 13  1  0
 13 14  2  0
 14 15  1  0
 15 16  2  0
 16 17  1  0
 17 18  1  0
 11 19  1  0
 19 20  1  0
 19 21  2  0
  6 22  1  0
 22 23  1  0
 23 24  3  0
 22 25  2  0
 25 26  1  0
 26 27  2  0
 27 28  1  0
 28 29  2  0
 29 30  1  0
 30 31  1  0
 31 32  1  0
 32 33  1  0
 33 34  1  0
 34 35  1  0
 35 36  1  0
 36 37  1  0
 37 38  2  0
 37 39  1  0
 39 40  1  0
 29  3  1  0
 40 34  1  0
 27  5  1  0
 21  8  1  0
 17 13  1  0
M  END
>  <Compound_ID>  (50) 
CHEMBL105642

>  <Active>  (50) 
1

>  <Smiles>  (50) 
COc1cc2c(Nc3ccc(Sc4nccn4C)c(Cl)c3)c(C#N)cnc2cc1OCCCN1CCS(=O)CC1

>  <canonical_smi>  (50) 
COc1cc2c(Nc3ccc(Sc4nccn4C)c(Cl)c3)c(C#N)cnc2cc1OCCCN1CCS(=O)CC1

>  <Set>  (50) 
G2 active

>  <Set_type>  (50) 
Test

>  <MW>  (50) 
597.17

>  <HBD>  (50) 
1

>  <HBA>  (50) 
9

>  <NRB>  (50) 
10

>  <NR>  (50) 
5

>  <NAR>  (50) 
4

>  <PSA>  (50) 
105.3

>  <Standard Type>  (50) 
nan

>  <Standard Relation>  (50) 
nan

>  <Standard Units>  (50) 
nan

>  <Standard Value>  (50) 
nan

>  <Assay ChEMBL ID>  (50) 
nan

>  <Assay Description>  (50) 
nan

>  <BAO Label>  (50) 
nan

>  <bits>  (50) 
<rdkit.DataStructs.cDataStructs.ExplicitBitVect object at 0x000002AD6E9970D0>

>  <Group>  (50) 
G2

$$$$

     RDKit          2D

 40 44  0  0  0  0  0  0  0  0999 V2000
    3.7500   -1.2990    0.0000 C   0  0  0  0  0  0  0  0  0  0  0  0
    3.0000    0.0000    0.0000 O   0  0  0  0  0  0  0  0  0  0  0  0
    1.5000    0.0000    0.0000 C   0  0  0  0  0  0  0  0  0  0  0  0
    0.7500   -1.2990    0.0000 C   0  0  0  0  0  0  0  0  0  0  0  0
   -0.7500   -1.2990    0.0000 C   0  0  0  0  0  0  0  0  0  0  0  0
   -1.5000   -2.5981    0.0000 C   0  0  0  0  0  0  0  0  0  0  0  0
   -0.7500   -3.8971    0.0000 N   0  0  0  0  0  0  0  0  0  0  0  0
   -1.5000   -5.1962    0.0000 C   0  0  0  0  0  0  0  0  0  0  0  0
   -3.0000   -5.1962    0.0000 C   0  0  0  0  0  0  0  0  0  0  0  0
   -3.7500   -6.4952    0.0000 C   0  0  0  0  0  0  0  0  0  0  0  0
   -3.0000   -7.7942    0.0000 C   0  0  0  0  0  0  0  0  0  0  0  0
   -3.7500   -9.0933    0.0000 S   0  0  0  0  0  0  0  0  0  0  0  0
   -5.2500   -9.0933    0.0000 C   0  0  0  0  0  0  0  0  0  0  0  0
   -6.1317  -10.3068    0.0000 N   0  0  0  0  0  0  0  0  0  0  0  0
   -7.5583   -9.8433    0.0000 C   0  0  0  0  0  0  0  0  0  0  0  0
   -7.5583   -8.3433    0.0000 C   0  0  0  0  0  0  0  0  0  0  0  0
   -6.1317   -7.8797    0.0000 N   0  0  0  0  0  0  0  0  0  0  0  0
   -5.6682   -6.4532    0.0000 C   0  0  0  0  0  0  0  0  0  0  0  0
   -1.5000   -7.7942    0.0000 C   0  0  0  0  0  0  0  0  0  0  0  0
   -0.7500   -9.0933    0.0000 Cl  0  0  0  0  0  0  0  0  0  0  0  0
   -0.7500   -6.4952    0.0000 C   0  0  0  0  0  0  0  0  0  0  0  0
   -3.0000   -2.5981    0.0000 C   0  0  0  0  0  0  0  0  0  0  0  0
   -3.7500   -3.8971    0.0000 C   0  0  0  0  0  0  0  0  0  0  0  0
   -4.5000   -5.1962    0.0000 N   0  0  0  0  0  0  0  0  0  0  0  0
   -3.7500   -1.2990    0.0000 C   0  0  0  0  0  0  0  0  0  0  0  0
   -3.0000    0.0000    0.0000 N   0  0  0  0  0  0  0  0  0  0  0  0
   -1.5000    0.0000    0.0000 C   0  0  0  0  0  0  0  0  0  0  0  0
   -0.7500    1.2990    0.0000 C   0  0  0  0  0  0  0  0  0  0  0  0
    0.7500    1.2990    0.0000 C   0  0  0  0  0  0  0  0  0  0  0  0
    1.5000    2.5981    0.0000 C   0  0  0  0  0  0  0  0  0  0  0  0
    3.0000    2.5981    0.0000 C   0  0  0  0  0  0  0  0  0  0  0  0
    3.7500    3.8971    0.0000 C   0  0  0  0  0  0  0  0  0  0  0  0
    5.2500    3.8971    0.0000 C   0  0  0  0  0  0  0  0  0  0  0  0
    6.0000    5.1962    0.0000 N   0  0  0  0  0  0  0  0  0  0  0  0
    7.5000    5.1962    0.0000 C   0  0  0  0  0  0  0  0  0  0  0  0
    8.2500    6.4952    0.0000 C   0  0  0  0  0  0  0  0  0  0  0  0
    7.5000    7.7942    0.0000 N   0  0  0  0  0  0  0  0  0  0  0  0
    8.2500    9.0933    0.0000 C   0  0  0  0  0  0  0  0  0  0  0  0
    6.0000    7.7942    0.0000 C   0  0  0  0  0  0  0  0  0  0  0  0
    5.2500    6.4952    0.0000 C   0  0  0  0  0  0  0  0  0  0  0  0
  1  2  1  0
  2  3  1  0
  3  4  2  0
  4  5  1  0
  5  6  2  0
  6  7  1  0
  7  8  1  0
  8  9  2  0
  9 10  1  0
 10 11  2  0
 11 12  1  0
 12 13  1  0
 13 14  2  0
 14 15  1  0
 15 16  2  0
 16 17  1  0
 17 18  1  0
 11 19  1  0
 19 20  1  0
 19 21  2  0
  6 22  1  0
 22 23  1  0
 23 24  3  0
 22 25  2  0
 25 26  1  0
 26 27  2  0
 27 28  1  0
 28 29  2  0
 29 30  1  0
 30 31  2  0
 31 32  1  0
 32 33  1  0
 33 34  1  0
 34 35  1  0
 35 36  1  0
 36 37  1  0
 37 38  1  0
 37 39  1  0
 39 40  1  0
 29  3  1  0
 40 34  1  0
 27  5  1  0
 21  8  1  0
 17 13  1  0
M  END
>  <Compound_ID>  (51) 
CHEMBL524111

>  <Active>  (51) 
1

>  <Smiles>  (51) 
COc1cc2c(Nc3ccc(Sc4nccn4C)c(Cl)c3)c(C#N)cnc2cc1/C=C/CCN1CCN(C)CC1

>  <canonical_smi>  (51) 
COc1cc2c(Nc3ccc(Sc4nccn4C)c(Cl)c3)c(C#N)cnc2cc1/C=C/CCN1CCN(C)CC1

>  <Set>  (51) 
G2 active

>  <Set_type>  (51) 
Test

>  <MW>  (51) 
574.15

>  <HBD>  (51) 
1

>  <HBA>  (51) 
8

>  <NRB>  (51) 
9

>  <NR>  (51) 
5

>  <NAR>  (51) 
4

>  <PSA>  (51) 
82.24

>  <Standard Type>  (51) 
nan

>  <Standard Relation>  (51) 
nan

>  <Standard Units>  (51) 
nan

>  <Standard Value>  (51) 
nan

>  <Assay ChEMBL ID>  (51) 
nan

>  <Assay Description>  (51) 
nan

>  <BAO Label>  (51) 
nan

>  <bits>  (51) 
<rdkit.DataStructs.cDataStructs.ExplicitBitVect object at 0x000002AD6E9971B0>

>  <Group>  (51) 
G2

$$$$

     RDKit          2D

 36 40  0  0  0  0  0  0  0  0999 V2000
   -7.9182   -0.0420    0.0000 C   0  0  0  0  0  0  0  0  0  0  0  0
   -8.3817    1.3846    0.0000 N   0  0  0  0  0  0  0  0  0  0  0  0
   -9.8083    1.8481    0.0000 C   0  0  0  0  0  0  0  0  0  0  0  0
   -9.8083    3.3481    0.0000 C   0  0  0  0  0  0  0  0  0  0  0  0
   -8.3817    3.8116    0.0000 N   0  0  0  0  0  0  0  0  0  0  0  0
   -7.5000    2.5981    0.0000 C   0  0  0  0  0  0  0  0  0  0  0  0
   -6.0000    2.5981    0.0000 S   0  0  0  0  0  0  0  0  0  0  0  0
   -5.2500    1.2990    0.0000 C   0  0  0  0  0  0  0  0  0  0  0  0
   -6.0000    0.0000    0.0000 C   0  0  0  0  0  0  0  0  0  0  0  0
   -5.2500   -1.2990    0.0000 C   0  0  0  0  0  0  0  0  0  0  0  0
   -3.7500   -1.2990    0.0000 C   0  0  0  0  0  0  0  0  0  0  0  0
   -3.0000   -2.5981    0.0000 N   0  0  0  0  0  0  0  0  0  0  0  0
   -1.5000   -2.5981    0.0000 C   0  0  0  0  0  0  0  0  0  0  0  0
   -0.7500   -3.8971    0.0000 C   0  0  0  0  0  0  0  0  0  0  0  0
   -1.5000   -5.1962    0.0000 C   0  0  0  0  0  0  0  0  0  0  0  0
   -2.2500   -6.4952    0.0000 N   0  0  0  0  0  0  0  0  0  0  0  0
    0.7500   -3.8971    0.0000 C   0  0  0  0  0  0  0  0  0  0  0  0
    1.5000   -2.5981    0.0000 N   0  0  0  0  0  0  0  0  0  0  0  0
    0.7500   -1.2990    0.0000 C   0  0  0  0  0  0  0  0  0  0  0  0
    1.5000    0.0000    0.0000 C   0  0  0  0  0  0  0  0  0  0  0  0
    0.7500    1.2990    0.0000 C   0  0  0  0  0  0  0  0  0  0  0  0
    1.5000    2.5981    0.0000 C   0  0  0  0  0  0  0  0  0  0  0  0
    0.7500    3.8971    0.0000 C   0  0  0  0  0  0  0  0  0  0  0  0
    1.5000    5.1962    0.0000 C   0  0  0  0  0  0  0  0  0  0  0  0
    0.7500    6.4952    0.0000 C   0  0  0  0  0  0  0  0  0  0  0  0
    1.5000    7.7942    0.0000 N   0  0  0  0  0  0  0  0  0  0  0  0
    0.8899    9.1645    0.0000 C   0  0  0  0  0  0  0  0  0  0  0  0
    2.0046   10.1682    0.0000 C   0  0  0  0  0  0  0  0  0  0  0  0
    3.3037    9.4182    0.0000 C   0  0  0  0  0  0  0  0  0  0  0  0
    2.9918    7.9510    0.0000 C   0  0  0  0  0  0  0  0  0  0  0  0
   -0.7500    1.2990    0.0000 C   0  0  0  0  0  0  0  0  0  0  0  0
   -1.5000    0.0000    0.0000 C   0  0  0  0  0  0  0  0  0  0  0  0
   -0.7500   -1.2990    0.0000 C   0  0  0  0  0  0  0  0  0  0  0  0
   -3.0000    0.0000    0.0000 C   0  0  0  0  0  0  0  0  0  0  0  0
   -3.7500    1.2990    0.0000 C   0  0  0  0  0  0  0  0  0  0  0  0
   -3.0000    2.5981    0.0000 Cl  0  0  0  0  0  0  0  0  0  0  0  0
  1  2  1  0
  2  3  1  0
  3  4  2  0
  4  5  1  0
  5  6  2  0
  6  7  1  0
  7  8  1  0
  8  9  2  0
  9 10  1  0
 10 11  2  0
 11 12  1  0
 12 13  1  0
 13 14  2  0
 14 15  1  0
 15 16  3  0
 14 17  1  0
 17 18  2  0
 18 19  1  0
 19 20  2  0
 20 21  1  0
 21 22  1  0
 22 23  2  0
 23 24  1  0
 24 25  1  0
 25 26  1  0
 26 27  1  0
 27 28  1  0
 28 29  1  0
 29 30  1  0
 21 31  2  0
 31 32  1  0
 32 33  2  0
 11 34  1  0
 34 35  2  0
 35 36  1  0
  6  2  1  0
 35  8  1  0
 33 13  1  0
 33 19  1  0
 30 26  1  0
M  END
>  <Compound_ID>  (52) 
CHEMBL521502

>  <Active>  (52) 
1

>  <Smiles>  (52) 
Cn1ccnc1Sc1ccc(Nc2c(C#N)cnc3cc(/C=C/CCN4CCCC4)ccc23)cc1Cl

>  <canonical_smi>  (52) 
Cn1ccnc1Sc1ccc(Nc2c(C#N)cnc3cc(/C=C/CCN4CCCC4)ccc23)cc1Cl

>  <Set>  (52) 
G2 active

>  <Set_type>  (52) 
Test

>  <MW>  (52) 
515.09

>  <HBD>  (52) 
1

>  <HBA>  (52) 
6

>  <NRB>  (52) 
8

>  <NR>  (52) 
5

>  <NAR>  (52) 
4

>  <PSA>  (52) 
69.77

>  <Standard Type>  (52) 
nan

>  <Standard Relation>  (52) 
nan

>  <Standard Units>  (52) 
nan

>  <Standard Value>  (52) 
nan

>  <Assay ChEMBL ID>  (52) 
nan

>  <Assay Description>  (52) 
nan

>  <BAO Label>  (52) 
nan

>  <bits>  (52) 
<rdkit.DataStructs.cDataStructs.ExplicitBitVect object at 0x000002AD6E997290>

>  <Group>  (52) 
G2

$$$$

     RDKit          2D

 38 42  0  0  0  0  0  0  0  0999 V2000
    3.7500   -1.2990    0.0000 C   0  0  0  0  0  0  0  0  0  0  0  0
    3.0000    0.0000    0.0000 O   0  0  0  0  0  0  0  0  0  0  0  0
    1.5000    0.0000    0.0000 C   0  0  0  0  0  0  0  0  0  0  0  0
    0.7500   -1.2990    0.0000 C   0  0  0  0  0  0  0  0  0  0  0  0
   -0.7500   -1.2990    0.0000 C   0  0  0  0  0  0  0  0  0  0  0  0
   -1.5000   -2.5981    0.0000 C   0  0  0  0  0  0  0  0  0  0  0  0
   -0.7500   -3.8971    0.0000 N   0  0  0  0  0  0  0  0  0  0  0  0
   -1.5000   -5.1962    0.0000 C   0  0  0  0  0  0  0  0  0  0  0  0
   -3.0000   -5.1962    0.0000 C   0  0  0  0  0  0  0  0  0  0  0  0
   -3.7500   -6.4952    0.0000 C   0  0  0  0  0  0  0  0  0  0  0  0
   -3.0000   -7.7942    0.0000 C   0  0  0  0  0  0  0  0  0  0  0  0
   -3.7500   -9.0933    0.0000 O   0  0  0  0  0  0  0  0  0  0  0  0
   -5.2500   -9.0933    0.0000 C   0  0  0  0  0  0  0  0  0  0  0  0
   -6.0000   -7.7942    0.0000 C   0  0  0  0  0  0  0  0  0  0  0  0
   -7.5000   -7.7942    0.0000 C   0  0  0  0  0  0  0  0  0  0  0  0
   -8.2500   -9.0933    0.0000 N   0  0  0  0  0  0  0  0  0  0  0  0
   -7.5000  -10.3923    0.0000 C   0  0  0  0  0  0  0  0  0  0  0  0
   -6.0000  -10.3923    0.0000 C   0  0  0  0  0  0  0  0  0  0  0  0
   -1.5000   -7.7942    0.0000 C   0  0  0  0  0  0  0  0  0  0  0  0
   -0.7500   -6.4952    0.0000 C   0  0  0  0  0  0  0  0  0  0  0  0
   -3.0000   -2.5981    0.0000 C   0  0  0  0  0  0  0  0  0  0  0  0
   -3.7500   -3.8971    0.0000 C   0  0  0  0  0  0  0  0  0  0  0  0
   -4.5000   -5.1962    0.0000 N   0  0  0  0  0  0  0  0  0  0  0  0
   -3.7500   -1.2990    0.0000 C   0  0  0  0  0  0  0  0  0  0  0  0
   -3.0000    0.0000    0.0000 N   0  0  0  0  0  0  0  0  0  0  0  0
   -1.5000    0.0000    0.0000 C   0  0  0  0  0  0  0  0  0  0  0  0
   -0.7500    1.2990    0.0000 C   0  0  0  0  0  0  0  0  0  0  0  0
    0.7500    1.2990    0.0000 C   0  0  0  0  0  0  0  0  0  0  0  0
    1.5000    2.5981    0.0000 O   0  0  0  0  0  0  0  0  0  0  0  0
    0.7500    3.8971    0.0000 C   0  0  0  0  0  0  0  0  0  0  0  0
    1.5000    5.1962    0.0000 C   0  0  0  0  0  0  0  0  0  0  0  0
    0.7500    6.4952    0.0000 C   0  0  0  0  0  0  0  0  0  0  0  0
    1.5000    7.7942    0.0000 N   0  0  0  0  0  0  0  0  0  0  0  0
    3.0000    7.7942    0.0000 C   0  0  0  0  0  0  0  0  0  0  0  0
    3.7500    9.0933    0.0000 C   0  0  0  0  0  0  0  0  0  0  0  0
    3.0000   10.3923    0.0000 O   0  0  0  0  0  0  0  0  0  0  0  0
    1.5000   10.3923    0.0000 C   0  0  0  0  0  0  0  0  0  0  0  0
    0.7500    9.0933    0.0000 C   0  0  0  0  0  0  0  0  0  0  0  0
  1  2  1  0
  2  3  1  0
  3  4  2  0
  4  5  1  0
  5  6  2  0
  6  7  1  0
  7  8  1  0
  8  9  2  0
  9 10  1  0
 10 11  2  0
 11 12  1  0
 12 13  1  0
 13 14  2  0
 14 15  1  0
 15 16  2  0
 16 17  1  0
 17 18  2  0
 11 19  1  0
 19 20  2  0
  6 21  1  0
 21 22  1  0
 22 23  3  0
 21 24  2  0
 24 25  1  0
 25 26  2  0
 26 27  1  0
 27 28  2  0
 28 29  1  0
 29 30  1  0
 30 31  1  0
 31 32  1  0
 32 33  1  0
 33 34  1  0
 34 35  1  0
 35 36  1  0
 36 37  1  0
 37 38  1  0
 28  3  1  0
 38 33  1  0
 26  5  1  0
 20  8  1  0
 18 13  1  0
M  END
>  <Compound_ID>  (53) 
CHEMBL31497

>  <Active>  (53) 
1

>  <Smiles>  (53) 
COc1cc2c(Nc3ccc(Oc4ccncc4)cc3)c(C#N)cnc2cc1OCCCN1CCOCC1

>  <canonical_smi>  (53) 
COc1cc2c(Nc3ccc(Oc4ccncc4)cc3)c(C#N)cnc2cc1OCCCN1CCOCC1

>  <Set>  (53) 
G2 active

>  <Set_type>  (53) 
Test

>  <MW>  (53) 
511.58

>  <HBD>  (53) 
1

>  <HBA>  (53) 
9

>  <NRB>  (53) 
10

>  <NR>  (53) 
5

>  <NAR>  (53) 
4

>  <PSA>  (53) 
101.76

>  <Standard Type>  (53) 
nan

>  <Standard Relation>  (53) 
nan

>  <Standard Units>  (53) 
nan

>  <Standard Value>  (53) 
nan

>  <Assay ChEMBL ID>  (53) 
nan

>  <Assay Description>  (53) 
nan

>  <BAO Label>  (53) 
nan

>  <bits>  (53) 
<rdkit.DataStructs.cDataStructs.ExplicitBitVect object at 0x000002AD6E997300>

>  <Group>  (53) 
G2

$$$$

     RDKit          2D

 33 36  0  0  0  0  0  0  0  0999 V2000
   -0.7500   -6.4952    0.0000 N   0  0  0  0  0  0  0  0  0  0  0  0
    0.7500   -6.4952    0.0000 C   0  0  0  0  0  0  0  0  0  0  0  0
    1.5000   -5.1962    0.0000 N   0  0  0  0  0  0  0  0  0  0  0  0
    0.7500   -3.8971    0.0000 C   0  0  0  0  0  0  0  0  0  0  0  0
    1.5000   -2.5981    0.0000 C   0  0  0  0  0  0  0  0  0  0  0  0
    0.7500   -1.2990    0.0000 N   0  0  0  0  0  0  0  0  0  0  0  0
    1.5000    0.0000    0.0000 C   0  0  0  0  0  0  0  0  0  0  0  0
    0.7500    1.2990    0.0000 C   0  0  0  0  0  0  0  0  0  0  0  0
   -0.7500    1.2990    0.0000 N   0  0  0  0  0  0  0  0  0  0  0  0
   -1.5000    0.0000    0.0000 C   0  0  0  0  0  0  0  0  0  0  0  0
   -0.7500   -1.2990    0.0000 C   0  0  0  0  0  0  0  0  0  0  0  0
    1.5000   -7.7942    0.0000 C   0  0  0  0  0  0  0  0  0  0  0  0
    2.9918   -7.9510    0.0000 C   0  0  0  0  0  0  0  0  0  0  0  0
    3.9955   -6.8363    0.0000 O   0  0  0  0  0  0  0  0  0  0  0  0
    3.3037   -9.4182    0.0000 N   0  0  0  0  0  0  0  0  0  0  0  0
    2.0046  -10.1682    0.0000 S   0  0  0  0  0  0  0  0  0  0  0  0
    0.8899   -9.1645    0.0000 C   0  0  0  0  0  0  0  0  0  0  0  0
   -0.5773   -9.4764    0.0000 N   0  0  0  0  0  0  0  0  0  0  0  0
   -1.0409  -10.9030    0.0000 C   0  0  0  0  0  0  0  0  0  0  0  0
   -2.5081  -11.2149    0.0000 C   0  0  0  0  0  0  0  0  0  0  0  0
   -2.9716  -12.6415    0.0000 C   0  0  0  0  0  0  0  0  0  0  0  0
   -1.9679  -13.7562    0.0000 C   0  0  0  0  0  0  0  0  0  0  0  0
   -2.4314  -15.1828    0.0000 O   0  0  0  0  0  0  0  0  0  0  0  0
   -3.8986  -15.4946    0.0000 C   0  0  0  0  0  0  0  0  0  0  0  0
   -4.9023  -14.3799    0.0000 C   0  0  0  0  0  0  0  0  0  0  0  0
   -6.3696  -14.6918    0.0000 C   0  0  0  0  0  0  0  0  0  0  0  0
   -7.3733  -13.5771    0.0000 Cl  0  0  0  0  0  0  0  0  0  0  0  0
   -6.8331  -16.1184    0.0000 C   0  0  0  0  0  0  0  0  0  0  0  0
   -5.8294  -17.2331    0.0000 C   0  0  0  0  0  0  0  0  0  0  0  0
   -4.3622  -16.9212    0.0000 C   0  0  0  0  0  0  0  0  0  0  0  0
   -3.3585  -18.0359    0.0000 Cl  0  0  0  0  0  0  0  0  0  0  0  0
   -0.5007  -13.4443    0.0000 C   0  0  0  0  0  0  0  0  0  0  0  0
   -0.0372  -12.0177    0.0000 C   0  0  0  0  0  0  0  0  0  0  0  0
  1  2  1  0
  2  3  2  0
  3  4  1  0
  4  5  1  0
  5  6  1  0
  6  7  1  0
  7  8  1  0
  8  9  1  0
  9 10  1  0
 10 11  1  0
  2 12  1  0
 12 13  1  0
 13 14  1  0
 13 15  2  0
 15 16  1  0
 16 17  1  0
 17 18  1  0
 18 19  1  0
 19 20  2  0
 20 21  1  0
 21 22  2  0
 22 23  1  0
 23 24  1  0
 24 25  2  0
 25 26  1  0
 26 27  1  0
 26 28  2  0
 28 29  1  0
 29 30  2  0
 30 31  1  0
 22 32  1  0
 32 33  2  0
 11  6  1  0
 17 12  2  0
 33 19  1  0
 30 24  1  0
M  END
>  <Compound_ID>  (54) 
CHEMBL214683

>  <Active>  (54) 
1

>  <Smiles>  (54) 
N/C(=N\CCN1CCNCC1)c1c(O)nsc1Nc1ccc(Oc2cc(Cl)ccc2Cl)cc1

>  <canonical_smi>  (54) 
N/C(=N\CCN1CCNCC1)c1c(O)nsc1Nc1ccc(Oc2cc(Cl)ccc2Cl)cc1

>  <Set>  (54) 
G2 active

>  <Set_type>  (54) 
Test

>  <MW>  (54) 
507.45

>  <HBD>  (54) 
4

>  <HBA>  (54) 
7

>  <NRB>  (54) 
8

>  <NR>  (54) 
4

>  <NAR>  (54) 
3

>  <PSA>  (54) 
108.03

>  <Standard Type>  (54) 
nan

>  <Standard Relation>  (54) 
nan

>  <Standard Units>  (54) 
nan

>  <Standard Value>  (54) 
nan

>  <Assay ChEMBL ID>  (54) 
nan

>  <Assay Description>  (54) 
nan

>  <BAO Label>  (54) 
nan

>  <bits>  (54) 
<rdkit.DataStructs.cDataStructs.ExplicitBitVect object at 0x000002AD6E9B4740>

>  <Group>  (54) 
G2

$$$$

     RDKit          2D

 26 28  0  0  0  0  0  0  0  0999 V2000
    2.2500   -6.4952    0.0000 N   0  0  0  0  0  0  0  0  0  0  0  0
    3.0000   -5.1962    0.0000 C   0  0  0  0  0  0  0  0  0  0  0  0
    3.7500   -3.8971    0.0000 C   0  0  0  0  0  0  0  0  0  0  0  0
    3.0000   -2.5981    0.0000 C   0  0  0  0  0  0  0  0  0  0  0  0
    3.7500   -1.2990    0.0000 N   0  0  0  0  0  0  0  0  0  0  0  0
    1.5000   -2.5981    0.0000 S   0  0  0  0  0  0  0  0  0  0  0  0
    0.7500   -1.2990    0.0000 C   0  0  0  0  0  0  0  0  0  0  0  0
    1.5000    0.0000    0.0000 C   0  0  0  0  0  0  0  0  0  0  0  0
    0.7500    1.2990    0.0000 C   0  0  0  0  0  0  0  0  0  0  0  0
   -0.7500    1.2990    0.0000 C   0  0  0  0  0  0  0  0  0  0  0  0
   -1.5000    0.0000    0.0000 C   0  0  0  0  0  0  0  0  0  0  0  0
   -0.7500   -1.2990    0.0000 C   0  0  0  0  0  0  0  0  0  0  0  0
   -1.5000   -2.5981    0.0000 N   0  0  0  0  0  0  0  0  0  0  0  0
    5.2500   -3.8971    0.0000 C   0  0  0  0  0  0  0  0  0  0  0  0
    6.0000   -5.1962    0.0000 C   0  0  0  0  0  0  0  0  0  0  0  0
    7.5000   -5.1962    0.0000 C   0  0  0  0  0  0  0  0  0  0  0  0
    8.2500   -3.8971    0.0000 C   0  0  0  0  0  0  0  0  0  0  0  0
    7.5000   -2.5981    0.0000 C   0  0  0  0  0  0  0  0  0  0  0  0
    8.2500   -1.2990    0.0000 C   0  0  0  0  0  0  0  0  0  0  0  0
    9.7500   -1.2990    0.0000 C   0  0  0  0  0  0  0  0  0  0  0  0
   10.5000   -2.5981    0.0000 C   0  0  0  0  0  0  0  0  0  0  0  0
   12.0000   -2.5981    0.0000 C   0  0  0  0  0  0  0  0  0  0  0  0
   12.7500   -1.2990    0.0000 C   0  0  0  0  0  0  0  0  0  0  0  0
   12.0000    0.0000    0.0000 C   0  0  0  0  0  0  0  0  0  0  0  0
   10.5000    0.0000    0.0000 C   0  0  0  0  0  0  0  0  0  0  0  0
    6.0000   -2.5981    0.0000 C   0  0  0  0  0  0  0  0  0  0  0  0
  1  2  3  0
  2  3  1  0
  3  4  2  0
  4  5  1  0
  4  6  1  0
  6  7  1  0
  7  8  2  0
  8  9  1  0
  9 10  2  0
 10 11  1  0
 11 12  2  0
 12 13  1  0
  3 14  1  0
 14 15  2  0
 15 16  1  0
 16 17  2  0
 17 18  1  0
 18 19  1  0
 19 20  1  0
 20 21  2  0
 21 22  1  0
 22 23  2  0
 23 24  1  0
 24 25  2  0
 18 26  2  0
 12  7  1  0
 26 14  1  0
 25 20  1  0
M  END
>  <Compound_ID>  (55) 
CHEMBL37871

>  <Active>  (55) 
1

>  <Smiles>  (55) 
N#C/C(=C(/N)Sc1ccccc1N)c1cccc(Cc2ccccc2)c1

>  <canonical_smi>  (55) 
N#C/C(=C(/N)Sc1ccccc1N)c1cccc(Cc2ccccc2)c1

>  <Set>  (55) 
G2 active

>  <Set_type>  (55) 
External

>  <MW>  (55) 
357.48

>  <HBD>  (55) 
2

>  <HBA>  (55) 
4

>  <NRB>  (55) 
5

>  <NR>  (55) 
3

>  <NAR>  (55) 
3

>  <PSA>  (55) 
75.83

>  <Standard Type>  (55) 
IC50

>  <Standard Relation>  (55) 
'='

>  <Standard Units>  (55) 
nM

>  <Standard Value>  (55) 
40.0

>  <Assay ChEMBL ID>  (55) 
CHEMBL729500

>  <Assay Description>  (55) 
Inhibitory potency against mitogen activated protein kinase kinase 1

>  <BAO Label>  (55) 
single protein format

>  <bits>  (55) 
<rdkit.DataStructs.cDataStructs.ExplicitBitVect object at 0x000002AD6E9B47B0>

>  <Group>  (55) 
G2

$$$$

     RDKit          2D

 25 26  0  0  0  0  0  0  0  0999 V2000
   -5.6836   -2.4482    0.0000 C   0  0  0  0  0  0  0  0  0  0  0  0
   -4.2164   -2.1363    0.0000 C   0  0  0  0  0  0  0  0  0  0  0  0
   -3.7529   -0.7098    0.0000 C   0  0  0  0  0  0  0  0  0  0  0  0
   -4.7566    0.4050    0.0000 O   0  0  0  0  0  0  0  0  0  0  0  0
   -3.2127   -3.2511    0.0000 N   0  0  0  0  0  0  0  0  0  0  0  0
   -1.7455   -2.9392    0.0000 C   0  0  0  0  0  0  0  0  0  0  0  0
   -1.2820   -1.5126    0.0000 N   0  0  0  0  0  0  0  0  0  0  0  0
   -0.7418   -4.0539    0.0000 C   0  0  0  0  0  0  0  0  0  0  0  0
   -1.0537   -5.5211    0.0000 C   0  0  0  0  0  0  0  0  0  0  0  0
   -2.4240   -6.1312    0.0000 O   0  0  0  0  0  0  0  0  0  0  0  0
    0.2454   -6.2711    0.0000 N   0  0  0  0  0  0  0  0  0  0  0  0
    1.3601   -5.2674    0.0000 S   0  0  0  0  0  0  0  0  0  0  0  0
    0.7500   -3.8971    0.0000 C   0  0  0  0  0  0  0  0  0  0  0  0
    1.5000   -2.5981    0.0000 N   0  0  0  0  0  0  0  0  0  0  0  0
    3.0000   -2.5981    0.0000 C   0  0  0  0  0  0  0  0  0  0  0  0
    3.7500   -3.8971    0.0000 C   0  0  0  0  0  0  0  0  0  0  0  0
    5.2500   -3.8971    0.0000 C   0  0  0  0  0  0  0  0  0  0  0  0
    6.0000   -2.5981    0.0000 C   0  0  0  0  0  0  0  0  0  0  0  0
    7.5000   -2.5981    0.0000 C   0  0  0  0  0  0  0  0  0  0  0  0
    9.0000   -2.5981    0.0000 F   0  0  0  0  0  0  0  0  0  0  0  0
    7.5000   -4.0981    0.0000 F   0  0  0  0  0  0  0  0  0  0  0  0
    7.5000   -1.0981    0.0000 F   0  0  0  0  0  0  0  0  0  0  0  0
    5.2500   -1.2990    0.0000 C   0  0  0  0  0  0  0  0  0  0  0  0
    3.7500   -1.2990    0.0000 C   0  0  0  0  0  0  0  0  0  0  0  0
    3.0000   -0.0000    0.0000 Cl  0  0  0  0  0  0  0  0  0  0  0  0
  1  2  1  0
  2  3  1  0
  3  4  1  0
  2  5  1  0
  5  6  2  0
  6  7  1  0
  6  8  1  0
  8  9  1  0
  9 10  1  0
  9 11  2  0
 11 12  1  0
 12 13  1  0
 13 14  1  0
 14 15  1  0
 15 16  2  0
 16 17  1  0
 17 18  2  0
 18 19  1  0
 19 20  1  0
 19 21  1  0
 19 22  1  0
 18 23  1  0
 23 24  2  0
 24 25  1  0
 13  8  2  0
 24 15  1  0
M  END
>  <Compound_ID>  (56) 
CHEMBL213168

>  <Active>  (56) 
1

>  <Smiles>  (56) 
CC(CO)/N=C(\N)c1c(O)nsc1Nc1ccc(C(F)(F)F)cc1Cl

>  <canonical_smi>  (56) 
CC(CO)/N=C(\N)c1c(O)nsc1Nc1ccc(C(F)(F)F)cc1Cl

>  <Set>  (56) 
G2 active

>  <Set_type>  (56) 
External

>  <MW>  (56) 
394.81

>  <HBD>  (56) 
4

>  <HBA>  (56) 
5

>  <NRB>  (56) 
5

>  <NR>  (56) 
2

>  <NAR>  (56) 
2

>  <PSA>  (56) 
103.76

>  <Standard Type>  (56) 
IC50

>  <Standard Relation>  (56) 
'='

>  <Standard Units>  (56) 
nM

>  <Standard Value>  (56) 
86.0

>  <Assay ChEMBL ID>  (56) 
CHEMBL867341

>  <Assay Description>  (56) 
Inhibition of MEK1

>  <BAO Label>  (56) 
single protein format

>  <bits>  (56) 
<rdkit.DataStructs.cDataStructs.ExplicitBitVect object at 0x000002AD6E9B4890>

>  <Group>  (56) 
G2

$$$$

     RDKit          2D

 32 35  0  0  0  0  0  0  0  0999 V2000
    2.5981   -8.1073    0.0000 C   0  0  0  0  0  0  0  0  0  0  0  0
    1.2990   -7.3573    0.0000 C   0  0  0  0  0  0  0  0  0  0  0  0
    1.2990   -5.8573    0.0000 O   0  0  0  0  0  0  0  0  0  0  0  0
   -0.0000   -5.1073    0.0000 C   0  0  0  0  0  0  0  0  0  0  0  0
   -1.2990   -5.8573    0.0000 O   0  0  0  0  0  0  0  0  0  0  0  0
   -0.0000   -3.6073    0.0000 C   0  0  0  0  0  0  0  0  0  0  0  0
    1.2135   -2.7256    0.0000 C   0  0  0  0  0  0  0  0  0  0  0  0
    0.7500   -1.2990    0.0000 N   0  0  0  0  0  0  0  0  0  0  0  0
    1.5000    0.0000    0.0000 N   0  0  0  0  0  0  0  0  0  0  0  0
    0.7500    1.2990    0.0000 C   0  0  0  0  0  0  0  0  0  0  0  0
   -0.7500    1.2990    0.0000 C   0  0  0  0  0  0  0  0  0  0  0  0
   -1.5000    2.5981    0.0000 C   0  0  0  0  0  0  0  0  0  0  0  0
   -2.2500    3.8971    0.0000 N   0  0  0  0  0  0  0  0  0  0  0  0
   -1.5000    0.0000    0.0000 C   0  0  0  0  0  0  0  0  0  0  0  0
   -3.0000    0.0000    0.0000 N   0  0  0  0  0  0  0  0  0  0  0  0
   -3.7500    1.2990    0.0000 C   0  0  0  0  0  0  0  0  0  0  0  0
   -3.0000    2.5981    0.0000 C   0  0  0  0  0  0  0  0  0  0  0  0
   -3.7500    3.8971    0.0000 C   0  0  0  0  0  0  0  0  0  0  0  0
   -5.2500    3.8971    0.0000 C   0  0  0  0  0  0  0  0  0  0  0  0
   -6.0000    5.1962    0.0000 O   0  0  0  0  0  0  0  0  0  0  0  0
   -5.2500    6.4952    0.0000 C   0  0  0  0  0  0  0  0  0  0  0  0
   -3.7500    6.4952    0.0000 C   0  0  0  0  0  0  0  0  0  0  0  0
   -3.0000    7.7942    0.0000 C   0  0  0  0  0  0  0  0  0  0  0  0
   -3.7500    9.0933    0.0000 C   0  0  0  0  0  0  0  0  0  0  0  0
   -3.0000   10.3923    0.0000 Cl  0  0  0  0  0  0  0  0  0  0  0  0
   -5.2500    9.0933    0.0000 C   0  0  0  0  0  0  0  0  0  0  0  0
   -6.0000    7.7942    0.0000 C   0  0  0  0  0  0  0  0  0  0  0  0
   -6.0000    2.5981    0.0000 C   0  0  0  0  0  0  0  0  0  0  0  0
   -5.2500    1.2990    0.0000 C   0  0  0  0  0  0  0  0  0  0  0  0
   -0.7500   -1.2990    0.0000 C   0  0  0  0  0  0  0  0  0  0  0  0
   -1.2135   -2.7256    0.0000 C   0  0  0  0  0  0  0  0  0  0  0  0
   -2.6401   -3.1891    0.0000 C   0  0  0  0  0  0  0  0  0  0  0  0
  1  2  1  0
  2  3  1  0
  3  4  1  0
  4  5  2  0
  4  6  1  0
  6  7  2  0
  7  8  1  0
  8  9  1  0
  9 10  2  0
 10 11  1  0
 11 12  1  0
 12 13  3  0
 11 14  2  0
 14 15  1  0
 15 16  1  0
 16 17  2  0
 17 18  1  0
 18 19  2  0
 19 20  1  0
 20 21  1  0
 21 22  2  0
 22 23  1  0
 23 24  2  0
 24 25  1  0
 24 26  1  0
 26 27  2  0
 19 28  1  0
 28 29  2  0
 14 30  1  0
 30 31  2  0
 31 32  1  0
 31  6  1  0
 30  8  1  0
 29 16  1  0
 27 21  1  0
M  END
>  <Compound_ID>  (57) 
CHEMBL203414

>  <Active>  (57) 
1

>  <Smiles>  (57) 
CCOC(=O)c1cn2ncc(C#N)c(Nc3ccc(Oc4ccc(Cl)cc4)cc3)c2c1C

>  <canonical_smi>  (57) 
CCOC(=O)c1cn2ncc(C#N)c(Nc3ccc(Oc4ccc(Cl)cc4)cc3)c2c1C

>  <Set>  (57) 
G2 active

>  <Set_type>  (57) 
External

>  <MW>  (57) 
446.89

>  <HBD>  (57) 
1

>  <HBA>  (57) 
6

>  <NRB>  (57) 
6

>  <NR>  (57) 
4

>  <NAR>  (57) 
4

>  <PSA>  (57) 
88.65

>  <Standard Type>  (57) 
IC50

>  <Standard Relation>  (57) 
'='

>  <Standard Units>  (57) 
nM

>  <Standard Value>  (57) 
642.0

>  <Assay ChEMBL ID>  (57) 
CHEMBL861916

>  <Assay Description>  (57) 
Inhibitory activity against MEK

>  <BAO Label>  (57) 
single protein format

>  <bits>  (57) 
<rdkit.DataStructs.cDataStructs.ExplicitBitVect object at 0x000002AD6E9B4970>

>  <Group>  (57) 
G2

$$$$

     RDKit          2D

 18 18  0  0  0  0  0  0  0  0999 V2000
    2.3886   -2.4414    0.0000 C   0  0  0  0  0  0  0  0  0  0  0  0
    2.6491   -0.9642    0.0000 S   0  0  0  0  0  0  0  0  0  0  0  0
    1.5000    0.0000    0.0000 C   0  0  0  0  0  0  0  0  0  0  0  0
    2.6491    0.9642    0.0000 C   0  0  0  0  0  0  0  0  0  0  0  0
    0.7500   -1.2990    0.0000 O   0  0  0  0  0  0  0  0  0  0  0  0
   -0.7500   -1.2990    0.0000 C   0  0  0  0  0  0  0  0  0  0  0  0
   -0.4895   -2.7762    0.0000 C   0  0  0  0  0  0  0  0  0  0  0  0
   -2.1595   -1.8121    0.0000 C   0  0  0  0  0  0  0  0  0  0  0  0
   -2.4200   -3.2893    0.0000 O   0  0  0  0  0  0  0  0  0  0  0  0
   -1.5000    0.0000    0.0000 C   0  0  0  0  0  0  0  0  0  0  0  0
   -2.6491   -0.9642    0.0000 C   0  0  0  0  0  0  0  0  0  0  0  0
   -2.6491    0.9642    0.0000 O   0  0  0  0  0  0  0  0  0  0  0  0
   -0.7500    1.2990    0.0000 C   0  0  0  0  0  0  0  0  0  0  0  0
   -2.1595    1.8121    0.0000 C   0  0  0  0  0  0  0  0  0  0  0  0
   -0.4895    2.7762    0.0000 O   0  0  0  0  0  0  0  0  0  0  0  0
    0.7500    1.2990    0.0000 C   0  0  0  0  0  0  0  0  0  0  0  0
    0.4895    2.7762    0.0000 C   0  0  0  0  0  0  0  0  0  0  0  0
    2.1595    1.8121    0.0000 O   0  0  0  0  0  0  0  0  0  0  0  0
  1  2  1  0
  2  3  1  0
  3  4  1  1
  3  5  1  0
  5  6  1  0
  6  7  1  1
  6  8  1  0
  8  9  1  0
  6 10  1  0
 10 11  1  1
 10 12  1  0
 10 13  1  0
 13 14  1  6
 13 15  1  0
 13 16  1  0
 16 17  1  6
 16 18  1  0
 16  3  1  0
M  END
>  <Compound_ID>  (58) 
C09915811

>  <Active>  (58) 
0

>  <Smiles>  (58) 
CS[C@]1(C)O[C@](C)(CO)[C@](C)(O)[C@@](C)(O)[C@@]1(C)O

>  <canonical_smi>  (58) 
CS[C@]1(C)O[C@](C)(CO)[C@](C)(O)[C@@](C)(O)[C@@]1(C)O

>  <Set>  (58) 
G2 inactive

>  <Set_type>  (58) 
Train

>  <MW>  (58) 
280.39

>  <HBD>  (58) 
4

>  <HBA>  (58) 
6

>  <NRB>  (58) 
2

>  <NR>  (58) 
1

>  <NAR>  (58) 
0

>  <PSA>  (58) 
90.15

>  <Standard Type>  (58) 
nan

>  <Standard Relation>  (58) 
nan

>  <Standard Units>  (58) 
nan

>  <Standard Value>  (58) 
nan

>  <Assay ChEMBL ID>  (58) 
nan

>  <Assay Description>  (58) 
nan

>  <BAO Label>  (58) 
nan

>  <bits>  (58) 
<rdkit.DataStructs.cDataStructs.ExplicitBitVect object at 0x000002AD6E997AE0>

>  <Group>  (58) 
G2

$$$$

     RDKit          2D

 22 24  0  0  0  0  0  0  0  0999 V2000
   -3.7500   -9.0933    0.0000 O   0  0  0  0  0  0  0  0  0  0  0  0
   -3.0000   -7.7942    0.0000 C   0  0  0  0  0  0  0  0  0  0  0  0
   -3.7500   -6.4952    0.0000 C   0  0  0  0  0  0  0  0  0  0  0  0
   -3.0000   -5.1962    0.0000 C   0  0  0  0  0  0  0  0  0  0  0  0
   -1.5000   -5.1962    0.0000 C   0  0  0  0  0  0  0  0  0  0  0  0
   -0.7500   -3.8971    0.0000 C   0  0  0  0  0  0  0  0  0  0  0  0
   -1.5000   -2.5981    0.0000 O   0  0  0  0  0  0  0  0  0  0  0  0
   -0.7500   -1.2990    0.0000 C   0  0  0  0  0  0  0  0  0  0  0  0
    0.7500   -1.2990    0.0000 C   0  0  0  0  0  0  0  0  0  0  0  0
    1.5000    0.0000    0.0000 C   0  0  0  0  0  0  0  0  0  0  0  0
    0.7500    1.2990    0.0000 C   0  0  0  0  0  0  0  0  0  0  0  0
   -0.7500    1.2990    0.0000 C   0  0  0  0  0  0  0  0  0  0  0  0
   -1.5000    2.5981    0.0000 O   0  0  0  0  0  0  0  0  0  0  0  0
   -1.5000    0.0000    0.0000 C   0  0  0  0  0  0  0  0  0  0  0  0
   -3.0000    0.0000    0.0000 O   0  0  0  0  0  0  0  0  0  0  0  0
    1.5000   -2.5981    0.0000 C   0  0  0  0  0  0  0  0  0  0  0  0
    3.0000   -2.5981    0.0000 O   0  0  0  0  0  0  0  0  0  0  0  0
    0.7500   -3.8971    0.0000 C   0  0  0  0  0  0  0  0  0  0  0  0
    1.5000   -5.1962    0.0000 O   0  0  0  0  0  0  0  0  0  0  0  0
   -0.7500   -6.4952    0.0000 C   0  0  0  0  0  0  0  0  0  0  0  0
   -1.5000   -7.7942    0.0000 C   0  0  0  0  0  0  0  0  0  0  0  0
   -0.7500   -9.0933    0.0000 O   0  0  0  0  0  0  0  0  0  0  0  0
  1  2  1  0
  2  3  2  0
  3  4  1  0
  4  5  2  0
  6  5  1  6
  6  7  1  0
  7  8  1  0
  8  9  2  0
  9 10  1  0
 10 11  2  0
 11 12  1  0
 12 13  1  0
 12 14  2  0
 14 15  1  0
  9 16  1  0
 16 17  1  1
 16 18  1  0
 18 19  1  1
  5 20  1  0
 20 21  2  0
 21 22  1  0
 21  2  1  0
 18  6  1  0
 14  8  1  0
M  END
>  <Compound_ID>  (59) 
C36375220

>  <Active>  (59) 
0

>  <Smiles>  (59) 
Oc1ccc([C@@H]2Oc3c(ccc(O)c3O)[C@@H](O)[C@H]2O)cc1O

>  <canonical_smi>  (59) 
Oc1ccc([C@@H]2Oc3c(ccc(O)c3O)[C@@H](O)[C@H]2O)cc1O

>  <Set>  (59) 
G2 inactive

>  <Set_type>  (59) 
Train

>  <MW>  (59) 
306.27

>  <HBD>  (59) 
6

>  <HBA>  (59) 
7

>  <NRB>  (59) 
1

>  <NR>  (59) 
3

>  <NAR>  (59) 
2

>  <PSA>  (59) 
130.61

>  <Standard Type>  (59) 
nan

>  <Standard Relation>  (59) 
nan

>  <Standard Units>  (59) 
nan

>  <Standard Value>  (59) 
nan

>  <Assay ChEMBL ID>  (59) 
nan

>  <Assay Description>  (59) 
nan

>  <BAO Label>  (59) 
nan

>  <bits>  (59) 
<rdkit.DataStructs.cDataStructs.ExplicitBitVect object at 0x000002AD6E994900>

>  <Group>  (59) 
G2

$$$$

     RDKit          2D

 22 25  0  0  0  0  0  0  0  0999 V2000
    3.0000    0.0000    0.0000 N   0  0  0  0  0  0  0  0  0  0  0  0
    1.5000    0.0000    0.0000 C   0  0  0  0  0  0  0  0  0  0  0  0
    0.7500   -1.2990    0.0000 N   0  0  0  0  0  0  0  0  0  0  0  0
   -0.7500   -1.2990    0.0000 C   0  0  0  0  0  0  0  0  0  0  0  0
   -1.5000   -2.5981    0.0000 N   0  0  0  0  0  0  0  0  0  0  0  0
   -1.5000    0.0000    0.0000 C   0  0  0  0  0  0  0  0  0  0  0  0
   -3.0000    0.0000    0.0000 N   0  0  0  0  0  0  0  0  0  0  0  0
   -3.7500    1.2990    0.0000 C   0  0  0  0  0  0  0  0  0  0  0  0
   -3.0000    2.5981    0.0000 C   0  0  0  0  0  0  0  0  0  0  0  0
   -1.5000    2.5981    0.0000 N   0  0  0  0  0  0  0  0  0  0  0  0
   -0.7500    1.2990    0.0000 C   0  0  0  0  0  0  0  0  0  0  0  0
    0.7500    1.2990    0.0000 N   0  0  0  0  0  0  0  0  0  0  0  0
   -4.0037    3.7128    0.0000 C   0  0  0  0  0  0  0  0  0  0  0  0
   -3.6918    5.1800    0.0000 O   0  0  0  0  0  0  0  0  0  0  0  0
   -5.3740    3.1027    0.0000 N   0  0  0  0  0  0  0  0  0  0  0  0
   -6.6731    3.8527    0.0000 C   0  0  0  0  0  0  0  0  0  0  0  0
   -6.6731    5.3527    0.0000 C   0  0  0  0  0  0  0  0  0  0  0  0
   -7.9721    6.1027    0.0000 C   0  0  0  0  0  0  0  0  0  0  0  0
   -9.2711    5.3527    0.0000 C   0  0  0  0  0  0  0  0  0  0  0  0
   -9.2711    3.8527    0.0000 C   0  0  0  0  0  0  0  0  0  0  0  0
   -7.9721    3.1027    0.0000 C   0  0  0  0  0  0  0  0  0  0  0  0
   -5.2172    1.6109    0.0000 C   0  0  0  0  0  0  0  0  0  0  0  0
  1  2  1  0
  2  3  2  0
  3  4  1  0
  4  5  1  0
  4  6  2  0
  6  7  1  0
  7  8  2  0
  8  9  1  0
  9 10  2  0
 10 11  1  0
 11 12  2  0
  9 13  1  0
 13 14  2  0
 13 15  1  0
 15 16  1  0
 16 17  1  0
 17 18  1  0
 18 19  1  0
 19 20  1  0
 20 21  1  0
 15 22  1  0
 12  2  1  0
 21 16  1  0
 11  6  1  0
 22  8  1  0
M  END
>  <Compound_ID>  (60) 
C01705804

>  <Active>  (60) 
0

>  <Smiles>  (60) 
Nc1nc(N)c2nc3c(nc2n1)C(=O)N(C1CCCCC1)C3

>  <canonical_smi>  (60) 
Nc1nc(N)c2nc3c(nc2n1)C(=O)N(C1CCCCC1)C3

>  <Set>  (60) 
G2 inactive

>  <Set_type>  (60) 
Train

>  <MW>  (60) 
299.34

>  <HBD>  (60) 
2

>  <HBA>  (60) 
7

>  <NRB>  (60) 
1

>  <NR>  (60) 
4

>  <NAR>  (60) 
2

>  <PSA>  (60) 
123.91

>  <Standard Type>  (60) 
nan

>  <Standard Relation>  (60) 
nan

>  <Standard Units>  (60) 
nan

>  <Standard Value>  (60) 
nan

>  <Assay ChEMBL ID>  (60) 
nan

>  <Assay Description>  (60) 
nan

>  <BAO Label>  (60) 
nan

>  <bits>  (60) 
<rdkit.DataStructs.cDataStructs.ExplicitBitVect object at 0x000002AD6E995FC0>

>  <Group>  (60) 
G2

$$$$

     RDKit          2D

 19 21  0  0  0  0  0  0  0  0999 V2000
    3.0000    0.0000    0.0000 C   0  0  0  0  0  0  0  0  0  0  0  0
    1.5000    0.0000    0.0000 C   0  0  0  0  0  0  0  0  0  0  0  0
    0.7500   -1.2990    0.0000 C   0  0  0  0  0  0  0  0  0  0  0  0
   -0.7500   -1.2990    0.0000 C   0  0  0  0  0  0  0  0  0  0  0  0
   -1.5000    0.0000    0.0000 C   0  0  0  0  0  0  0  0  0  0  0  0
   -3.0000    0.0000    0.0000 C   0  0  0  0  0  0  0  0  0  0  0  0
   -3.8817   -1.2135    0.0000 C   0  0  0  0  0  0  0  0  0  0  0  0
   -5.3083   -0.7500    0.0000 C   0  0  0  0  0  0  0  0  0  0  0  0
   -6.5218   -1.6317    0.0000 C   0  0  0  0  0  0  0  0  0  0  0  0
   -6.5218   -3.1317    0.0000 N   0  0  0  0  0  0  0  0  0  0  0  0
   -7.9484   -3.5952    0.0000 N   0  0  0  0  0  0  0  0  0  0  0  0
   -8.8301   -2.3817    0.0000 C   0  0  0  0  0  0  0  0  0  0  0  0
  -10.3301   -2.3817    0.0000 S   0  0  0  0  0  0  0  0  0  0  0  0
   -7.9484   -1.1682    0.0000 N   0  0  0  0  0  0  0  0  0  0  0  0
   -8.4119    0.2584    0.0000 N   0  0  0  0  0  0  0  0  0  0  0  0
   -5.3083    0.7500    0.0000 N   0  0  0  0  0  0  0  0  0  0  0  0
   -3.8817    1.2135    0.0000 N   0  0  0  0  0  0  0  0  0  0  0  0
   -0.7500    1.2990    0.0000 C   0  0  0  0  0  0  0  0  0  0  0  0
    0.7500    1.2990    0.0000 C   0  0  0  0  0  0  0  0  0  0  0  0
  1  2  1  0
  2  3  2  0
  3  4  1  0
  4  5  2  0
  5  6  1  0
  6  7  2  0
  8  7  1  6
  8  9  1  0
  9 10  1  1
 10 11  1  0
 11 12  1  0
 12 13  1  6
 12 14  1  0
 14 15  1  0
  8 16  1  0
 16 17  2  0
  5 18  1  0
 18 19  2  0
 19  2  1  0
 17  6  1  0
 14  9  1  0
M  END
>  <Compound_ID>  (61) 
C39280364

>  <Active>  (61) 
0

>  <Smiles>  (61) 
Cc1ccc(C2=C[C@H]([C@H]3NN[C@H](S)N3N)N=N2)cc1

>  <canonical_smi>  (61) 
Cc1ccc(C2=C[C@H]([C@H]3NN[C@H](S)N3N)N=N2)cc1

>  <Set>  (61) 
G2 inactive

>  <Set_type>  (61) 
Train

>  <MW>  (61) 
276.37

>  <HBD>  (61) 
4

>  <HBA>  (61) 
4

>  <NRB>  (61) 
2

>  <NR>  (61) 
3

>  <NAR>  (61) 
1

>  <PSA>  (61) 
78.04

>  <Standard Type>  (61) 
nan

>  <Standard Relation>  (61) 
nan

>  <Standard Units>  (61) 
nan

>  <Standard Value>  (61) 
nan

>  <Assay ChEMBL ID>  (61) 
nan

>  <Assay Description>  (61) 
nan

>  <BAO Label>  (61) 
nan

>  <bits>  (61) 
<rdkit.DataStructs.cDataStructs.ExplicitBitVect object at 0x000002AD6E9978B0>

>  <Group>  (61) 
G2

$$$$

     RDKit          2D

 19 21  0  0  0  0  0  0  0  0999 V2000
    3.0000    0.0000    0.0000 N   0  0  0  0  0  0  0  0  0  0  0  0
    1.5000    0.0000    0.0000 C   0  0  0  0  0  0  0  0  0  0  0  0
    0.7500   -1.2990    0.0000 C   0  0  0  0  0  0  0  0  0  0  0  0
   -0.7500   -1.2990    0.0000 C   0  0  0  0  0  0  0  0  0  0  0  0
   -1.5000    0.0000    0.0000 C   0  0  0  0  0  0  0  0  0  0  0  0
   -2.9672    0.3119    0.0000 N   0  0  0  0  0  0  0  0  0  0  0  0
   -3.1240    1.8037    0.0000 C   0  0  0  0  0  0  0  0  0  0  0  0
   -4.4231    2.5537    0.0000 N   0  0  0  0  0  2  0  0  0  0  0  0
   -4.4231    4.0537    0.0000 S   0  0  0  0  0  0  0  0  0  0  0  0
   -2.9231    4.0537    0.0000 O   0  0  0  0  0  0  0  0  0  0  0  0
   -5.9231    4.0537    0.0000 O   0  0  0  0  0  0  0  0  0  0  0  0
   -4.4231    5.5537    0.0000 C   0  0  0  0  0  0  0  0  0  0  0  0
   -5.6366    6.4353    0.0000 C   0  0  0  0  0  0  0  0  0  0  0  0
   -5.1731    7.8619    0.0000 N   0  0  0  0  0  0  0  0  0  0  0  0
   -3.6731    7.8619    0.0000 N   0  0  0  0  0  0  0  0  0  0  0  0
   -3.2095    6.4353    0.0000 C   0  0  0  0  0  0  0  0  0  0  0  0
   -1.7537    2.4138    0.0000 S   0  0  0  0  0  0  0  0  0  0  0  0
   -0.7500    1.2990    0.0000 C   0  0  0  0  0  0  0  0  0  0  0  0
    0.7500    1.2990    0.0000 C   0  0  0  0  0  0  0  0  0  0  0  0
  1  2  1  0
  2  3  2  0
  3  4  1  0
  4  5  2  0
  5  6  1  0
  6  7  2  0
  7  8  1  0
  8  9  1  0
  9 10  2  0
  9 11  2  0
  9 12  1  0
 12 13  1  0
 13 14  2  0
 14 15  1  0
 15 16  1  0
  7 17  1  0
 17 18  1  0
 18 19  2  0
 19  2  1  0
 18  5  1  0
 16 12  2  0
M  CHG  1   8  -1
M  END
>  <Compound_ID>  (62) 
C37744360

>  <Active>  (62) 
0

>  <Smiles>  (62) 
Nc1ccc2nc([N-]S(=O)(=O)c3cn[nH]c3)sc2c1

>  <canonical_smi>  (62) 
Nc1ccc2nc([N-]S(=O)(=O)c3cn[nH]c3)sc2c1

>  <Set>  (62) 
G2 inactive

>  <Set_type>  (62) 
Train

>  <MW>  (62) 
294.34

>  <HBD>  (62) 
2

>  <HBA>  (62) 
5

>  <NRB>  (62) 
3

>  <NR>  (62) 
3

>  <NAR>  (62) 
3

>  <PSA>  (62) 
115.83

>  <Standard Type>  (62) 
nan

>  <Standard Relation>  (62) 
nan

>  <Standard Units>  (62) 
nan

>  <Standard Value>  (62) 
nan

>  <Assay ChEMBL ID>  (62) 
nan

>  <Assay Description>  (62) 
nan

>  <BAO Label>  (62) 
nan

>  <bits>  (62) 
<rdkit.DataStructs.cDataStructs.ExplicitBitVect object at 0x000002AD6E995150>

>  <Group>  (62) 
G2

$$$$

     RDKit          2D

 18 19  0  0  0  0  0  0  0  0999 V2000
    3.7500   -1.2990    0.0000 N   0  0  0  0  0  0  0  0  0  0  0  0
    3.0000    0.0000    0.0000 C   0  0  0  0  0  0  0  0  0  0  0  0
    3.7500    1.2990    0.0000 N   0  0  0  0  0  0  0  0  0  0  0  0
    3.0000    2.5981    0.0000 O   0  0  0  0  0  0  0  0  0  0  0  0
    1.5000    0.0000    0.0000 C   0  0  0  0  0  0  0  0  0  0  0  0
    0.7500   -1.2990    0.0000 N   0  0  0  0  0  0  0  0  0  0  0  0
   -0.7500   -1.2990    0.0000 C   0  0  0  0  0  0  0  0  0  0  0  0
   -1.5000    0.0000    0.0000 C   0  0  0  0  0  0  0  0  0  0  0  0
   -0.7500    1.2990    0.0000 N   0  0  0  0  0  0  0  0  0  0  0  0
    0.7500    1.2990    0.0000 C   0  0  0  0  0  0  0  0  0  0  0  0
    1.5000    2.5981    0.0000 S   0  0  0  0  0  0  0  0  0  0  0  0
    0.7500    3.8971    0.0000 C   0  0  0  0  0  0  0  0  0  0  0  0
    1.5000    5.1962    0.0000 N   0  0  0  0  0  0  0  0  0  0  0  0
    0.7500    6.4952    0.0000 C   0  0  0  0  0  0  0  0  0  0  0  0
   -0.7500    6.4952    0.0000 C   0  0  0  0  0  0  0  0  0  0  0  0
   -1.5000    5.1962    0.0000 C   0  0  0  0  0  0  0  0  0  0  0  0
   -3.0000    5.1962    0.0000 O   0  0  0  0  0  1  0  0  0  0  0  0
   -0.7500    3.8971    0.0000 N   0  0  0  0  0  0  0  0  0  0  0  0
  1  2  1  0
  2  3  2  0
  3  4  1  0
  2  5  1  0
  5  6  2  0
  6  7  1  0
  7  8  2  0
  8  9  1  0
  9 10  2  0
 10 11  1  0
 11 12  1  0
 12 13  2  0
 13 14  1  0
 14 15  2  0
 15 16  1  0
 16 17  1  0
 16 18  2  0
 10  5  1  0
 18 12  1  0
M  CHG  1  17  -1
M  END
>  <Compound_ID>  (63) 
C54396352

>  <Active>  (63) 
0

>  <Smiles>  (63) 
N/C(=N/O)c1nccnc1Sc1nccc([O-])n1

>  <canonical_smi>  (63) 
N/C(=N/O)c1nccnc1Sc1nccc([O-])n1

>  <Set>  (63) 
G2 inactive

>  <Set_type>  (63) 
Train

>  <MW>  (63) 
263.26

>  <HBD>  (63) 
2

>  <HBA>  (63) 
8

>  <NRB>  (63) 
3

>  <NR>  (63) 
2

>  <NAR>  (63) 
2

>  <PSA>  (63) 
133.23

>  <Standard Type>  (63) 
nan

>  <Standard Relation>  (63) 
nan

>  <Standard Units>  (63) 
nan

>  <Standard Value>  (63) 
nan

>  <Assay ChEMBL ID>  (63) 
nan

>  <Assay Description>  (63) 
nan

>  <BAO Label>  (63) 
nan

>  <bits>  (63) 
<rdkit.DataStructs.cDataStructs.ExplicitBitVect object at 0x000002AD6E994BA0>

>  <Group>  (63) 
G2

$$$$

     RDKit          2D

 19 19  0  0  0  0  0  0  0  0999 V2000
    2.6491    0.9642    0.0000 C   0  0  0  0  0  0  0  0  0  0  0  0
    1.5000    0.0000    0.0000 C   0  0  0  0  0  0  0  0  0  0  0  0
    2.6491   -0.9642    0.0000 C   0  0  0  0  0  0  0  0  0  0  0  0
    4.0586   -0.4512    0.0000 O   0  0  0  0  0  0  0  0  0  0  0  0
    2.3886   -2.4414    0.0000 O   0  0  0  0  0  1  0  0  0  0  0  0
    0.7500   -1.2990    0.0000 C   0  0  0  0  0  0  0  0  0  0  0  0
   -0.7500   -1.2990    0.0000 C   0  0  0  0  0  0  0  0  0  0  0  0
   -1.5000    0.0000    0.0000 N   0  0  0  0  0  0  0  0  0  0  0  0
   -3.0000    0.0000    0.0000 C   0  0  0  0  0  0  0  0  0  0  0  0
   -3.7500   -1.2990    0.0000 O   0  0  0  0  0  0  0  0  0  0  0  0
   -3.7500    1.2990    0.0000 N   0  0  0  0  0  0  0  0  0  0  0  0
   -5.2500    1.2990    0.0000 C   0  0  0  0  0  0  0  0  0  0  0  0
   -5.2500    2.7990    0.0000 C   0  0  0  0  0  0  0  0  0  0  0  0
   -5.2500   -0.2010    0.0000 C   0  0  0  0  0  0  0  0  0  0  0  0
   -6.7500    1.2990    0.0000 C   0  0  0  0  0  0  0  0  0  0  0  0
   -7.5000    0.0000    0.0000 N   0  0  0  0  0  0  0  0  0  0  0  0
   -7.5000    2.5981    0.0000 O   0  0  0  0  0  0  0  0  0  0  0  0
   -0.7500    1.2990    0.0000 C   0  0  0  0  0  0  0  0  0  0  0  0
    0.7500    1.2990    0.0000 C   0  0  0  0  0  0  0  0  0  0  0  0
  1  2  1  0
  2  3  1  0
  3  4  2  0
  3  5  1  0
  2  6  1  0
  6  7  1  0
  7  8  1  0
  8  9  1  0
  9 10  2  0
  9 11  1  0
 11 12  1  0
 12 13  1  0
 12 14  1  0
 12 15  1  0
 15 16  1  0
 15 17  2  0
  8 18  1  0
 18 19  1  0
 19  2  1  0
M  CHG  1   5  -1
M  END
>  <Compound_ID>  (64) 
C62843866

>  <Active>  (64) 
0

>  <Smiles>  (64) 
CC1(C(=O)[O-])CCN(C(=O)NC(C)(C)C(N)=O)CC1

>  <canonical_smi>  (64) 
CC1(C(=O)[O-])CCN(C(=O)NC(C)(C)C(N)=O)CC1

>  <Set>  (64) 
G2 inactive

>  <Set_type>  (64) 
Train

>  <MW>  (64) 
270.31

>  <HBD>  (64) 
2

>  <HBA>  (64) 
4

>  <NRB>  (64) 
3

>  <NR>  (64) 
1

>  <NAR>  (64) 
0

>  <PSA>  (64) 
115.56

>  <Standard Type>  (64) 
nan

>  <Standard Relation>  (64) 
nan

>  <Standard Units>  (64) 
nan

>  <Standard Value>  (64) 
nan

>  <Assay ChEMBL ID>  (64) 
nan

>  <Assay Description>  (64) 
nan

>  <BAO Label>  (64) 
nan

>  <bits>  (64) 
<rdkit.DataStructs.cDataStructs.ExplicitBitVect object at 0x000002AD6E994AC0>

>  <Group>  (64) 
G2

$$$$

     RDKit          2D

 20 22  0  0  0  0  0  0  0  0999 V2000
   -0.0000   -5.1073    0.0000 O   0  0  0  0  0  0  0  0  0  0  0  0
   -0.0000   -3.6073    0.0000 C   0  0  0  0  0  0  0  0  0  0  0  0
    1.2135   -2.7256    0.0000 N   0  0  0  0  0  0  0  0  0  0  0  0
    0.7500   -1.2990    0.0000 C   0  0  0  0  0  0  0  0  0  0  0  0
    1.5000    0.0000    0.0000 C   0  0  0  0  0  0  0  0  0  0  0  0
    0.7500    1.2990    0.0000 C   0  0  0  0  0  0  0  0  0  0  0  0
   -0.7500    1.2990    0.0000 C   0  0  0  0  0  0  0  0  0  0  0  0
   -1.5000    2.5981    0.0000 C   0  0  0  0  0  0  0  0  0  0  0  0
   -3.0000    2.5981    0.0000 Br  0  0  0  0  0  0  0  0  0  0  0  0
   -0.7500    3.8971    0.0000 C   0  0  0  0  0  0  0  0  0  0  0  0
    0.7500    3.8971    0.0000 C   0  0  0  0  0  0  0  0  0  0  0  0
    1.5000    5.1962    0.0000 C   0  0  0  0  0  0  0  0  0  0  0  0
    0.7500    6.4952    0.0000 C   0  0  0  0  0  0  0  0  0  0  0  0
    1.5000    7.7942    0.0000 Cl  0  0  0  0  0  0  0  0  0  0  0  0
   -0.7500    6.4952    0.0000 C   0  0  0  0  0  0  0  0  0  0  0  0
   -1.5000    5.1962    0.0000 C   0  0  0  0  0  0  0  0  0  0  0  0
   -3.0000    5.1962    0.0000 F   0  0  0  0  0  0  0  0  0  0  0  0
   -1.5000    0.0000    0.0000 C   0  0  0  0  0  0  0  0  0  0  0  0
   -0.7500   -1.2990    0.0000 C   0  0  0  0  0  0  0  0  0  0  0  0
   -1.2135   -2.7256    0.0000 N   0  0  0  0  0  0  0  0  0  0  0  0
  1  2  2  0
  2  3  1  0
  3  4  1  0
  4  5  2  0
  5  6  1  0
  6  7  2  0
  7  8  1  0
  8  9  1  6
  8 10  1  0
 10 11  2  0
 11 12  1  0
 12 13  2  0
 13 14  1  0
 13 15  1  0
 15 16  2  0
 16 17  1  0
  7 18  1  0
 18 19  2  0
 19 20  1  0
 20  2  1  0
 19  4  1  0
 16 10  1  0
M  END
>  <Compound_ID>  (65) 
C40282571

>  <Active>  (65) 
0

>  <Smiles>  (65) 
O=c1[nH]c2ccc([C@H](Br)c3ccc(Cl)cc3F)cc2[nH]1

>  <canonical_smi>  (65) 
O=c1[nH]c2ccc([C@H](Br)c3ccc(Cl)cc3F)cc2[nH]1

>  <Set>  (65) 
G2 inactive

>  <Set_type>  (65) 
Train

>  <MW>  (65) 
355.59

>  <HBD>  (65) 
2

>  <HBA>  (65) 
1

>  <NRB>  (65) 
2

>  <NR>  (65) 
3

>  <NAR>  (65) 
3

>  <PSA>  (65) 
48.65

>  <Standard Type>  (65) 
nan

>  <Standard Relation>  (65) 
nan

>  <Standard Units>  (65) 
nan

>  <Standard Value>  (65) 
nan

>  <Assay ChEMBL ID>  (65) 
nan

>  <Assay Description>  (65) 
nan

>  <BAO Label>  (65) 
nan

>  <bits>  (65) 
<rdkit.DataStructs.cDataStructs.ExplicitBitVect object at 0x000002AD6E994A50>

>  <Group>  (65) 
G2

$$$$

     RDKit          2D

 26 28  0  0  0  0  0  0  0  0999 V2000
    3.0000    0.0000    0.0000 N   0  0  0  0  0  0  0  0  0  0  0  0
    1.5000    0.0000    0.0000 C   0  0  0  0  0  0  0  0  0  0  0  0
    0.7500   -1.2990    0.0000 N   0  0  0  0  0  0  0  0  0  0  0  0
   -0.7500   -1.2990    0.0000 C   0  0  0  0  0  0  0  0  0  0  0  0
   -1.5000   -2.5981    0.0000 N   0  0  0  0  0  0  0  0  0  0  0  0
   -1.5000    0.0000    0.0000 C   0  0  0  0  0  0  0  0  0  0  0  0
   -3.0000    0.0000    0.0000 C   0  0  0  0  0  0  0  0  0  0  0  0
   -3.7500    1.2990    0.0000 C   0  0  0  0  0  0  0  0  0  0  0  0
   -5.2500    1.2990    0.0000 C   0  0  0  0  0  0  0  0  0  0  0  0
   -6.0000    0.0000    0.0000 C   0  0  0  0  0  0  0  0  0  0  0  0
   -7.5000    0.0000    0.0000 Cl  0  0  0  0  0  0  0  0  0  0  0  0
   -5.2500   -1.2990    0.0000 C   0  0  0  0  0  0  0  0  0  0  0  0
   -6.0000   -2.5981    0.0000 Cl  0  0  0  0  0  0  0  0  0  0  0  0
   -3.7500   -1.2990    0.0000 C   0  0  0  0  0  0  0  0  0  0  0  0
   -0.7500    1.2990    0.0000 C   0  0  0  0  0  0  0  0  0  0  0  0
   -1.5000    2.5981    0.0000 C   0  0  0  0  0  0  0  0  0  0  0  0
   -0.7500    3.8971    0.0000 C   0  0  0  0  0  0  0  0  0  0  0  0
   -1.5000    5.1962    0.0000 C   0  0  0  0  0  0  0  0  0  0  0  0
   -0.7500    6.4952    0.0000 C   0  0  0  0  0  0  0  0  0  0  0  0
   -1.5000    7.7942    0.0000 C   0  0  0  0  0  0  0  0  0  0  0  0
   -0.7500    9.0933    0.0000 C   0  0  0  0  0  0  0  0  0  0  0  0
   -1.5000   10.3923    0.0000 C   0  0  0  0  0  0  0  0  0  0  0  0
   -3.0000   10.3923    0.0000 C   0  0  0  0  0  0  0  0  0  0  0  0
   -3.7500    9.0933    0.0000 C   0  0  0  0  0  0  0  0  0  0  0  0
   -3.0000    7.7942    0.0000 C   0  0  0  0  0  0  0  0  0  0  0  0
    0.7500    1.2990    0.0000 N   0  0  0  0  0  0  0  0  0  0  0  0
  1  2  1  0
  2  3  2  0
  3  4  1  0
  4  5  1  0
  4  6  2  0
  6  7  1  0
  7  8  2  0
  8  9  1  0
  9 10  2  0
 10 11  1  0
 10 12  1  0
 12 13  1  0
 12 14  2  0
  6 15  1  0
 15 16  1  0
 16 17  2  0
 17 18  1  0
 18 19  2  0
 19 20  1  0
 20 21  2  0
 21 22  1  0
 22 23  2  0
 23 24  1  0
 24 25  2  0
 15 26  2  0
 26  2  1  0
 14  7  1  0
 25 20  1  0
M  END
>  <Compound_ID>  (66) 
C13285055

>  <Active>  (66) 
0

>  <Smiles>  (66) 
Nc1nc(N)c(-c2ccc(Cl)c(Cl)c2)c(/C=C/C=C/c2ccccc2)n1

>  <canonical_smi>  (66) 
Nc1nc(N)c(-c2ccc(Cl)c(Cl)c2)c(/C=C/C=C/c2ccccc2)n1

>  <Set>  (66) 
G2 inactive

>  <Set_type>  (66) 
Train

>  <MW>  (66) 
383.28

>  <HBD>  (66) 
2

>  <HBA>  (66) 
4

>  <NRB>  (66) 
4

>  <NR>  (66) 
3

>  <NAR>  (66) 
3

>  <PSA>  (66) 
77.82

>  <Standard Type>  (66) 
nan

>  <Standard Relation>  (66) 
nan

>  <Standard Units>  (66) 
nan

>  <Standard Value>  (66) 
nan

>  <Assay ChEMBL ID>  (66) 
nan

>  <Assay Description>  (66) 
nan

>  <BAO Label>  (66) 
nan

>  <bits>  (66) 
<rdkit.DataStructs.cDataStructs.ExplicitBitVect object at 0x000002AD6E994820>

>  <Group>  (66) 
G2

$$$$

     RDKit          2D

 28 30  0  0  0  0  0  0  0  0999 V2000
    5.2500   -1.2990    0.0000 C   0  0  0  0  0  0  0  0  0  0  0  0
    3.7500   -1.2990    0.0000 C   0  0  0  0  0  0  0  0  0  0  0  0
    3.0000   -2.5981    0.0000 C   0  0  0  0  0  0  0  0  0  0  0  0
    3.0000    0.0000    0.0000 C   0  0  0  0  0  0  0  0  0  0  0  0
    1.5000    0.0000    0.0000 C   0  0  0  0  0  0  0  0  0  0  0  0
    0.7500   -1.2990    0.0000 C   0  0  0  0  0  0  0  0  0  0  0  0
   -0.7500   -1.2990    0.0000 C   0  0  0  0  0  0  0  0  0  0  0  0
   -1.5000   -2.5981    0.0000 N   0  0  0  0  0  0  0  0  0  0  0  0
   -1.5000    0.0000    0.0000 C   0  0  0  0  0  0  0  0  0  0  0  0
   -0.7500    1.2990    0.0000 C   0  0  0  0  0  0  0  0  0  0  0  0
    0.7500    1.2990    0.0000 C   0  0  0  0  0  0  0  0  0  0  0  0
    1.5000    2.5981    0.0000 O   0  0  0  0  0  0  0  0  0  0  0  0
   -1.5000    2.5981    0.0000 C   0  0  0  0  0  0  0  0  0  0  0  0
   -0.7500    3.8971    0.0000 O   0  0  0  0  0  0  0  0  0  0  0  0
   -3.0000    2.5981    0.0000 C   0  0  0  0  0  0  0  0  0  0  0  0
   -3.7500    3.8971    0.0000 C   0  0  0  0  0  0  0  0  0  0  0  0
   -3.0000    5.1962    0.0000 O   0  0  0  0  0  0  0  0  0  0  0  0
   -5.2500    3.8971    0.0000 C   0  0  0  0  0  0  0  0  0  0  0  0
   -6.0000    5.1962    0.0000 C   0  0  0  0  0  0  0  0  0  0  0  0
   -5.2500    6.4952    0.0000 C   0  0  0  0  0  0  0  0  0  0  0  0
   -6.0000    7.7942    0.0000 C   0  0  0  0  0  0  0  0  0  0  0  0
   -3.7500    6.4952    0.0000 C   0  0  0  0  0  0  0  0  0  0  0  0
   -6.0000    2.5981    0.0000 C   0  0  0  0  0  0  0  0  0  0  0  0
   -5.2500    1.2990    0.0000 C   0  0  0  0  0  0  0  0  0  0  0  0
   -6.0000    0.0000    0.0000 N   0  0  0  0  0  0  0  0  0  0  0  0
   -3.7500    1.2990    0.0000 C   0  0  0  0  0  0  0  0  0  0  0  0
   -3.0000    0.0000    0.0000 C   0  0  0  0  0  0  0  0  0  0  0  0
   -3.7500   -1.2990    0.0000 O   0  0  0  0  0  0  0  0  0  0  0  0
  1  2  1  0
  2  3  1  0
  2  4  1  0
  4  5  1  0
  5  6  2  0
  6  7  1  0
  7  8  1  0
  7  9  2  0
  9 10  1  0
 10 11  2  0
 11 12  1  0
 10 13  1  0
 13 14  2  0
 13 15  1  0
 15 16  2  0
 16 17  1  0
 16 18  1  0
 18 19  1  0
 19 20  1  0
 20 21  1  0
 20 22  1  0
 18 23  2  0
 23 24  1  0
 24 25  1  0
 24 26  2  0
 26 27  1  0
 27 28  2  0
 11  5  1  0
 26 15  1  0
 27  9  1  0
M  END
>  <Compound_ID>  (67) 
C38634202

>  <Active>  (67) 
0

>  <Smiles>  (67) 
CC(C)Cc1cc(N)c2c(c1O)C(=O)c1c(O)c(CC(C)C)cc(N)c1C2=O

>  <canonical_smi>  (67) 
CC(C)Cc1cc(N)c2c(c1O)C(=O)c1c(O)c(CC(C)C)cc(N)c1C2=O

>  <Set>  (67) 
G2 inactive

>  <Set_type>  (67) 
Train

>  <MW>  (67) 
382.46

>  <HBD>  (67) 
4

>  <HBA>  (67) 
6

>  <NRB>  (67) 
4

>  <NR>  (67) 
3

>  <NAR>  (67) 
3

>  <PSA>  (67) 
126.64

>  <Standard Type>  (67) 
nan

>  <Standard Relation>  (67) 
nan

>  <Standard Units>  (67) 
nan

>  <Standard Value>  (67) 
nan

>  <Assay ChEMBL ID>  (67) 
nan

>  <Assay Description>  (67) 
nan

>  <BAO Label>  (67) 
nan

>  <bits>  (67) 
<rdkit.DataStructs.cDataStructs.ExplicitBitVect object at 0x000002AD6E997B50>

>  <Group>  (67) 
G2

$$$$

     RDKit          2D

 25 27  0  0  0  0  0  0  0  0999 V2000
    5.2500   -1.2990    0.0000 C   0  0  0  0  0  0  0  0  0  0  0  0
    3.7500   -1.2990    0.0000 C   0  0  0  0  0  0  0  0  0  0  0  0
    3.0000    0.0000    0.0000 C   0  0  0  0  0  0  0  0  0  0  0  0
    1.5000    0.0000    0.0000 C   0  0  0  0  0  0  0  0  0  0  0  0
    0.7500   -1.2990    0.0000 C   0  0  0  0  0  0  0  0  0  0  0  0
   -0.7500   -1.2990    0.0000 C   0  0  0  0  0  0  0  0  0  0  0  0
   -1.5000    0.0000    0.0000 C   0  0  0  0  0  0  0  0  0  0  0  0
   -0.7500    1.2990    0.0000 C   0  0  0  0  0  0  0  0  0  0  0  0
   -1.7537    2.4138    0.0000 S   0  0  0  0  0  0  0  0  0  0  0  0
   -3.1240    1.8037    0.0000 C   0  0  0  0  0  0  0  0  0  0  0  0
   -4.4231    2.5537    0.0000 N   0  0  0  0  0  0  0  0  0  0  0  0
   -4.4231    4.0537    0.0000 C   0  0  0  0  0  0  0  0  0  0  0  0
   -3.1240    4.8037    0.0000 O   0  0  0  0  0  0  0  0  0  0  0  0
   -5.7221    4.8037    0.0000 N   0  0  0  0  0  0  0  0  0  0  0  0
   -5.7221    6.3037    0.0000 C   0  0  0  0  0  0  0  0  0  0  0  0
   -4.4231    7.0537    0.0000 C   0  0  0  0  0  0  0  0  0  0  0  0
   -4.4231    8.5537    0.0000 C   0  0  0  0  0  0  0  0  0  0  0  0
   -5.7221    9.3037    0.0000 C   0  0  0  0  0  0  0  0  0  0  0  0
   -7.0211    8.5537    0.0000 C   0  0  0  0  0  0  0  0  0  0  0  0
   -7.0211    7.0537    0.0000 C   0  0  0  0  0  0  0  0  0  0  0  0
   -2.9672    0.3119    0.0000 C   0  0  0  0  0  0  0  0  0  0  0  0
   -4.0819   -0.6918    0.0000 C   0  0  0  0  0  0  0  0  0  0  0  0
   -5.5085   -0.2283    0.0000 N   0  0  0  0  0  0  0  0  0  0  0  0
   -3.7701   -2.1590    0.0000 O   0  0  0  0  0  0  0  0  0  0  0  0
    0.7500    1.2990    0.0000 C   0  0  0  0  0  0  0  0  0  0  0  0
  1  2  1  0
  2  3  1  0
  4  3  1  1
  4  5  1  0
  5  6  1  0
  6  7  1  0
  7  8  2  0
  8  9  1  0
  9 10  1  0
 10 11  1  0
 11 12  1  0
 12 13  2  0
 12 14  1  0
 14 15  1  0
 15 16  1  0
 16 17  1  0
 17 18  1  0
 18 19  1  0
 19 20  1  0
 10 21  2  0
 21 22  1  0
 22 23  1  0
 22 24  2  0
  8 25  1  0
 25  4  1  0
 21  7  1  0
 20 15  1  0
M  END
>  <Compound_ID>  (68) 
C05469905

>  <Active>  (68) 
0

>  <Smiles>  (68) 
CCC[C@H]1CCc2c(sc(NC(=O)NC3CCCCC3)c2C(N)=O)C1

>  <canonical_smi>  (68) 
CCC[C@H]1CCc2c(sc(NC(=O)NC3CCCCC3)c2C(N)=O)C1

>  <Set>  (68) 
G2 inactive

>  <Set_type>  (68) 
Train

>  <MW>  (68) 
363.53

>  <HBD>  (68) 
3

>  <HBA>  (68) 
2

>  <NRB>  (68) 
5

>  <NR>  (68) 
3

>  <NAR>  (68) 
1

>  <PSA>  (68) 
84.22

>  <Standard Type>  (68) 
nan

>  <Standard Relation>  (68) 
nan

>  <Standard Units>  (68) 
nan

>  <Standard Value>  (68) 
nan

>  <Assay ChEMBL ID>  (68) 
nan

>  <Assay Description>  (68) 
nan

>  <BAO Label>  (68) 
nan

>  <bits>  (68) 
<rdkit.DataStructs.cDataStructs.ExplicitBitVect object at 0x000002AD6E994890>

>  <Group>  (68) 
G2

$$$$

     RDKit          2D

 22 25  0  0  0  0  0  0  0  0999 V2000
   -8.6640    1.7626    0.0000 S   0  0  0  0  0  0  0  0  0  0  0  0
   -7.9140    3.0616    0.0000 C   0  0  0  0  0  0  0  0  0  0  0  0
   -6.4140    3.0616    0.0000 N   0  0  0  0  0  0  0  0  0  0  0  0
   -5.6640    1.7626    0.0000 N   0  0  0  0  0  0  0  0  0  0  0  0
   -4.1640    1.7626    0.0000 C   0  0  0  0  0  0  0  0  0  0  0  0
   -3.4140    3.0616    0.0000 S   0  0  0  0  0  0  0  0  0  0  0  0
   -3.4140    0.4635    0.0000 N   0  0  0  0  0  0  0  0  0  0  0  0
   -1.9140    0.4635    0.0000 C   0  0  0  0  0  0  0  0  0  0  0  0
   -1.0323    1.6771    0.0000 C   0  0  0  0  0  0  0  0  0  0  0  0
    0.3943    1.2135    0.0000 C   0  0  0  0  0  0  0  0  0  0  0  0
    1.2760    0.0000    0.0000 C   0  0  0  0  0  0  0  0  0  0  0  0
    0.3943   -1.2135    0.0000 C   0  0  0  0  0  0  0  0  0  0  0  0
   -1.0323   -0.7500    0.0000 C   0  0  0  0  0  0  0  0  0  0  0  0
   -1.0323    0.7500    0.0000 C   0  0  0  0  0  0  0  0  0  0  0  0
   -8.6640    4.3606    0.0000 N   0  0  0  0  0  0  0  0  0  0  0  0
  -10.1640    4.3606    0.0000 C   0  0  0  0  0  0  0  0  0  0  0  0
  -11.0456    3.1471    0.0000 C   0  0  0  0  0  0  0  0  0  0  0  0
  -12.4722    3.6106    0.0000 C   0  0  0  0  0  0  0  0  0  0  0  0
  -13.3539    4.8242    0.0000 C   0  0  0  0  0  0  0  0  0  0  0  0
  -12.4722    6.0377    0.0000 C   0  0  0  0  0  0  0  0  0  0  0  0
  -11.0456    5.5742    0.0000 C   0  0  0  0  0  0  0  0  0  0  0  0
  -11.0456    4.0742    0.0000 C   0  0  0  0  0  0  0  0  0  0  0  0
  1  2  2  0
  2  3  1  0
  3  4  1  0
  4  5  1  0
  5  6  2  0
  5  7  1  0
  8  7  1  6
  8  9  1  0
 10  9  1  1
 10 11  1  0
 11 12  2  0
 13 12  1  1
 13 14  1  0
  2 15  1  0
 16 15  1  6
 16 17  1  0
 18 17  1  1
 18 19  1  0
 19 20  1  0
 21 20  1  1
 21 22  1  0
 13  8  1  0
 21 16  1  0
 14 10  1  0
 22 18  1  0
M  END
>  <Compound_ID>  (69) 
C00137465

>  <Active>  (69) 
0

>  <Smiles>  (69) 
S=C(NNC(=S)N[C@@H]1C[C@H]2C=C[C@@H]1C2)N[C@@H]1C[C@H]2CC[C@@H]1C2

>  <canonical_smi>  (69) 
S=C(NNC(=S)N[C@@H]1C[C@H]2CC[C@@H]1C2)N[C@@H]1C[C@H]2C=C[C@@H]1C2

>  <Set>  (69) 
G2 inactive

>  <Set_type>  (69) 
Train

>  <MW>  (69) 
336.53

>  <HBD>  (69) 
4

>  <HBA>  (69) 
6

>  <NRB>  (69) 
2

>  <NR>  (69) 
4

>  <NAR>  (69) 
0

>  <PSA>  (69) 
48.12

>  <Standard Type>  (69) 
nan

>  <Standard Relation>  (69) 
nan

>  <Standard Units>  (69) 
nan

>  <Standard Value>  (69) 
nan

>  <Assay ChEMBL ID>  (69) 
nan

>  <Assay Description>  (69) 
nan

>  <BAO Label>  (69) 
nan

>  <bits>  (69) 
<rdkit.DataStructs.cDataStructs.ExplicitBitVect object at 0x000002AD6E994740>

>  <Group>  (69) 
G2

$$$$

     RDKit          2D

 28 29  0  0  0  0  0  0  0  0999 V2000
    3.0000    0.0000    0.0000 C   0  0  0  0  0  0  0  0  0  0  0  0
    1.5000    0.0000    0.0000 C   0  0  0  0  0  0  0  0  0  0  0  0
    0.7500   -1.2990    0.0000 C   0  0  0  0  0  0  0  0  0  0  0  0
   -0.7500   -1.2990    0.0000 C   0  0  0  0  0  0  0  0  0  0  0  0
   -0.4895   -2.7762    0.0000 C   0  0  0  0  0  0  0  0  0  0  0  0
   -0.2291   -4.2535    0.0000 F   0  0  0  0  0  0  0  0  0  0  0  0
    0.9877   -2.5158    0.0000 F   0  0  0  0  0  0  0  0  0  0  0  0
   -1.2519   -3.0093    0.0000 F   0  0  0  0  0  0  0  0  0  0  0  0
   -2.1595   -1.8121    0.0000 C   0  0  0  0  0  0  0  0  0  0  0  0
   -3.5691   -2.3251    0.0000 F   0  0  0  0  0  0  0  0  0  0  0  0
   -1.9802   -2.5888    0.0000 F   0  0  0  0  0  0  0  0  0  0  0  0
   -2.9984   -0.5686    0.0000 F   0  0  0  0  0  0  0  0  0  0  0  0
   -1.5000    0.0000    0.0000 C   0  0  0  0  0  0  0  0  0  0  0  0
   -3.0000    0.0000    0.0000 C   0  0  0  0  0  0  0  0  0  0  0  0
   -4.5000    0.0000    0.0000 N   0  0  0  0  0  0  0  0  0  0  0  0
   -0.7500    1.2990    0.0000 C   0  0  0  0  0  0  0  0  0  0  0  0
   -1.5000    2.5981    0.0000 N   0  0  0  0  0  0  0  0  0  0  0  0
    0.7500    1.2990    0.0000 N   0  0  0  0  0  0  0  0  0  0  0  0
    1.5000    2.5981    0.0000 C   0  0  0  0  0  0  0  0  0  0  0  0
    3.0000    2.5981    0.0000 C   0  0  0  0  0  0  0  0  0  0  0  0
    3.7500    3.8971    0.0000 C   0  0  0  0  0  0  0  0  0  0  0  0
    3.0000    5.1962    0.0000 C   0  0  0  0  0  0  0  0  0  0  0  0
    3.7500    6.4952    0.0000 S   0  0  0  0  0  0  0  0  0  0  0  0
    4.5000    7.7942    0.0000 N   0  0  0  0  0  0  0  0  0  0  0  0
    5.0490    5.7452    0.0000 O   0  0  0  0  0  0  0  0  0  0  0  0
    2.4510    7.2452    0.0000 O   0  0  0  0  0  0  0  0  0  0  0  0
    1.5000    5.1962    0.0000 C   0  0  0  0  0  0  0  0  0  0  0  0
    0.7500    3.8971    0.0000 C   0  0  0  0  0  0  0  0  0  0  0  0
  1  2  1  0
  2  3  2  0
  3  4  1  0
  4  5  1  0
  5  6  1  0
  5  7  1  0
  5  8  1  0
  4  9  1  0
  9 10  1  0
  9 11  1  0
  9 12  1  0
  4 13  1  0
 13 14  1  0
 14 15  3  0
 13 16  2  0
 16 17  1  0
 16 18  1  0
 18 19  1  0
 19 20  2  0
 20 21  1  0
 21 22  2  0
 22 23  1  0
 23 24  1  0
 23 25  2  0
 23 26  2  0
 22 27  1  0
 27 28  2  0
 18  2  1  0
 28 19  1  0
M  END
>  <Compound_ID>  (70) 
C01240346

>  <Active>  (70) 
0

>  <Smiles>  (70) 
CC1=CC(C(F)(F)F)(C(F)(F)F)C(C#N)=C(N)N1c1ccc(S(N)(=O)=O)cc1

>  <canonical_smi>  (70) 
CC1=CC(C(F)(F)F)(C(F)(F)F)C(C#N)=C(N)N1c1ccc(S(N)(=O)=O)cc1

>  <Set>  (70) 
G2 inactive

>  <Set_type>  (70) 
Train

>  <MW>  (70) 
426.34

>  <HBD>  (70) 
2

>  <HBA>  (70) 
5

>  <NRB>  (70) 
2

>  <NR>  (70) 
2

>  <NAR>  (70) 
1

>  <PSA>  (70) 
113.21

>  <Standard Type>  (70) 
nan

>  <Standard Relation>  (70) 
nan

>  <Standard Units>  (70) 
nan

>  <Standard Value>  (70) 
nan

>  <Assay ChEMBL ID>  (70) 
nan

>  <Assay Description>  (70) 
nan

>  <BAO Label>  (70) 
nan

>  <bits>  (70) 
<rdkit.DataStructs.cDataStructs.ExplicitBitVect object at 0x000002AD6E9946D0>

>  <Group>  (70) 
G2

$$$$

     RDKit          2D

 18 17  0  0  0  0  0  0  0  0999 V2000
   -0.7500    1.2990    0.0000 C   0  0  0  0  0  0  0  0  0  0  0  0
    0.0000    0.0000    0.0000 C   0  0  0  0  0  0  0  0  0  0  0  0
   -0.7500   -1.2990    0.0000 C   0  0  0  0  0  0  0  0  0  0  0  0
   -2.2500   -1.2990    0.0000 C   0  0  0  0  0  0  0  0  0  0  0  0
   -2.2500    0.2010    0.0000 O   0  0  0  0  0  0  0  0  0  0  0  0
   -3.7500   -1.2990    0.0000 C   0  0  0  0  0  0  0  0  0  0  0  0
   -5.2500   -1.2990    0.0000 F   0  0  0  0  0  0  0  0  0  0  0  0
   -3.8580   -2.1782    0.0000 F   0  0  0  0  0  0  0  0  0  0  0  0
   -3.7500    0.2010    0.0000 Cl  0  0  0  0  0  0  0  0  0  0  0  0
   -2.2500   -2.7990    0.0000 C   0  0  0  0  0  0  0  0  0  0  0  0
   -2.2500   -4.2990    0.0000 F   0  0  0  0  0  0  0  0  0  0  0  0
   -3.1291   -2.9070    0.0000 F   0  0  0  0  0  0  0  0  0  0  0  0
   -0.7500   -2.7990    0.0000 Cl  0  0  0  0  0  0  0  0  0  0  0  0
    1.5000    0.0000    0.0000 N   0  0  0  0  0  0  0  0  0  0  0  0
    2.2500   -1.2990    0.0000 N   0  0  0  0  0  0  0  0  0  0  0  0
    3.7500   -1.2990    0.0000 C   0  0  0  0  0  0  0  0  0  0  0  0
    4.5000   -2.5981    0.0000 N   0  0  0  0  0  0  0  0  0  0  0  0
    4.5000    0.0000    0.0000 S   0  0  0  0  0  0  0  0  0  0  0  0
  1  2  1  0
  2  3  1  0
  3  4  1  0
  4  5  1  0
  4  6  1  0
  6  7  1  0
  6  8  1  0
  6  9  1  0
  4 10  1  0
 10 11  1  0
 10 12  1  0
 10 13  1  0
  2 14  2  0
 14 15  1  0
 15 16  1  0
 16 17  1  0
 16 18  2  0
M  END
>  <Compound_ID>  (71) 
C05941376

>  <Active>  (71) 
0

>  <Smiles>  (71) 
C/C(CC(O)(C(F)(F)Cl)C(F)(F)Cl)=N/NC(N)=S

>  <canonical_smi>  (71) 
C/C(CC(O)(C(F)(F)Cl)C(F)(F)Cl)=N/NC(N)=S

>  <Set>  (71) 
G2 inactive

>  <Set_type>  (71) 
Train

>  <MW>  (71) 
330.13

>  <HBD>  (71) 
3

>  <HBA>  (71) 
4

>  <NRB>  (71) 
5

>  <NR>  (71) 
0

>  <NAR>  (71) 
0

>  <PSA>  (71) 
70.64

>  <Standard Type>  (71) 
nan

>  <Standard Relation>  (71) 
nan

>  <Standard Units>  (71) 
nan

>  <Standard Value>  (71) 
nan

>  <Assay ChEMBL ID>  (71) 
nan

>  <Assay Description>  (71) 
nan

>  <BAO Label>  (71) 
nan

>  <bits>  (71) 
<rdkit.DataStructs.cDataStructs.ExplicitBitVect object at 0x000002AD6E997F40>

>  <Group>  (71) 
G2

$$$$

     RDKit          2D

 19 20  0  0  0  0  0  0  0  0999 V2000
    1.5000   -5.1962    0.0000 C   0  0  0  0  0  0  0  0  0  0  0  0
    0.7500   -3.8971    0.0000 C   0  0  0  0  0  0  0  0  0  0  0  0
    1.5000   -2.5981    0.0000 N   0  0  0  0  0  0  0  0  0  0  0  0
    0.7500   -1.2990    0.0000 C   0  0  0  0  0  0  0  0  0  0  0  0
    1.5000    0.0000    0.0000 C   0  0  0  0  0  0  0  0  0  0  0  0
    0.7500    1.2990    0.0000 C   0  0  0  0  0  0  0  0  0  0  0  0
   -0.7500    1.2990    0.0000 C   0  0  0  0  0  0  0  0  0  0  0  0
   -1.5000    2.5981    0.0000 C   0  0  0  0  0  0  0  0  0  0  0  0
   -0.7500    3.8971    0.0000 N   0  0  0  0  0  0  0  0  0  0  0  0
   -3.0000    2.5981    0.0000 S   0  0  0  0  0  0  0  0  0  0  0  0
   -1.5000    0.0000    0.0000 C   0  0  0  0  0  0  0  0  0  0  0  0
   -0.7500   -1.2990    0.0000 N   0  0  0  0  0  0  0  0  0  0  0  0
   -0.7500   -3.8971    0.0000 C   0  0  0  0  0  0  0  0  0  0  0  0
   -1.5000   -2.5981    0.0000 C   0  0  0  0  0  0  0  0  0  0  0  0
   -3.0000   -2.5981    0.0000 C   0  0  0  0  0  0  0  0  0  0  0  0
   -3.7500   -3.8971    0.0000 C   0  0  0  0  0  0  0  0  0  0  0  0
   -5.2500   -3.8971    0.0000 Br  0  0  0  0  0  0  0  0  0  0  0  0
   -3.0000   -5.1962    0.0000 C   0  0  0  0  0  0  0  0  0  0  0  0
   -1.5000   -5.1962    0.0000 C   0  0  0  0  0  0  0  0  0  0  0  0
  2  1  1  6
  2  3  1  0
  3  4  1  0
  4  5  2  0
  5  6  1  0
  6  7  2  0
  7  8  1  0
  8  9  1  0
  8 10  2  0
  7 11  1  0
 11 12  2  0
  2 13  1  0
 13 14  2  0
 14 15  1  0
 15 16  2  0
 16 17  1  0
 16 18  1  0
 18 19  2  0
 12  4  1  0
 19 13  1  0
M  END
>  <Compound_ID>  (72) 
C49526867

>  <Active>  (72) 
0

>  <Smiles>  (72) 
C[C@@H](Nc1ccc(C(N)=S)cn1)c1ccc(Br)cc1

>  <canonical_smi>  (72) 
C[C@@H](Nc1ccc(C(N)=S)cn1)c1ccc(Br)cc1

>  <Set>  (72) 
G2 inactive

>  <Set_type>  (72) 
Train

>  <MW>  (72) 
336.26

>  <HBD>  (72) 
2

>  <HBA>  (72) 
4

>  <NRB>  (72) 
4

>  <NR>  (72) 
2

>  <NAR>  (72) 
2

>  <PSA>  (72) 
50.94

>  <Standard Type>  (72) 
nan

>  <Standard Relation>  (72) 
nan

>  <Standard Units>  (72) 
nan

>  <Standard Value>  (72) 
nan

>  <Assay ChEMBL ID>  (72) 
nan

>  <Assay Description>  (72) 
nan

>  <BAO Label>  (72) 
nan

>  <bits>  (72) 
<rdkit.DataStructs.cDataStructs.ExplicitBitVect object at 0x000002AD6E9957E0>

>  <Group>  (72) 
G2

$$$$

     RDKit          2D

 25 27  0  0  0  0  0  0  0  0999 V2000
   -8.2500   -9.0933    0.0000 C   0  0  0  0  0  0  0  0  0  0  0  0
   -7.5000   -7.7942    0.0000 C   0  0  0  0  0  0  0  0  0  0  0  0
   -6.0000   -7.7942    0.0000 N   0  0  0  0  0  4  0  0  0  0  0  0
   -5.2500   -9.0933    0.0000 C   0  0  0  0  0  0  0  0  0  0  0  0
   -6.0000  -10.3923    0.0000 C   0  0  0  0  0  0  0  0  0  0  0  0
   -5.2500   -6.4952    0.0000 C   0  0  0  0  0  0  0  0  0  0  0  0
   -3.7500   -6.4952    0.0000 C   0  0  0  0  0  0  0  0  0  0  0  0
   -3.0000   -5.1962    0.0000 N   0  0  0  0  0  4  0  0  0  0  0  0
   -1.5000   -5.1962    0.0000 C   0  0  0  0  0  0  0  0  0  0  0  0
   -0.7500   -6.4952    0.0000 C   0  0  0  0  0  0  0  0  0  0  0  0
    0.7500   -6.4952    0.0000 C   0  0  0  0  0  0  0  0  0  0  0  0
    1.5000   -5.1962    0.0000 C   0  0  0  0  0  0  0  0  0  0  0  0
    3.0000   -5.1962    0.0000 C   0  0  0  0  0  0  0  0  0  0  0  0
    3.7500   -6.4952    0.0000 O   0  0  0  0  0  0  0  0  0  0  0  0
    0.7500   -3.8971    0.0000 C   0  0  0  0  0  0  0  0  0  0  0  0
    1.5000   -2.5981    0.0000 S   0  0  0  0  0  0  0  0  0  0  0  0
    0.7500   -1.2990    0.0000 C   0  0  0  0  0  0  0  0  0  0  0  0
    1.5000    0.0000    0.0000 C   0  0  0  0  0  0  0  0  0  0  0  0
    0.7500    1.2990    0.0000 C   0  0  0  0  0  0  0  0  0  0  0  0
   -0.7500    1.2990    0.0000 C   0  0  0  0  0  0  0  0  0  0  0  0
   -1.5000    0.0000    0.0000 C   0  0  0  0  0  0  0  0  0  0  0  0
   -0.7500   -1.2990    0.0000 C   0  0  0  0  0  0  0  0  0  0  0  0
   -1.5000   -2.5981    0.0000 C   0  0  0  0  0  0  0  0  0  0  0  0
   -3.0000   -2.5981    0.0000 O   0  0  0  0  0  0  0  0  0  0  0  0
   -0.7500   -3.8971    0.0000 C   0  0  0  0  0  0  0  0  0  0  0  0
  1  2  1  0
  2  3  1  0
  3  4  1  0
  4  5  1  0
  3  6  1  0
  6  7  1  0
  7  8  1  0
  8  9  2  0
  9 10  1  0
 10 11  2  0
 11 12  1  0
 12 13  1  0
 13 14  1  0
 12 15  2  0
 15 16  1  0
 16 17  1  0
 17 18  2  0
 18 19  1  0
 19 20  2  0
 20 21  1  0
 21 22  2  0
 22 23  1  0
 23 24  1  0
 23 25  2  0
 25  9  1  0
 25 15  1  0
 22 17  1  0
M  CHG  2   3   1   8   1
M  END
>  <Compound_ID>  (73) 
C19796104

>  <Active>  (73) 
0

>  <Smiles>  (73) 
CC[NH+](CC)CC/[NH+]=c1\ccc(CO)c2sc3ccccc3c(O)c1-2

>  <canonical_smi>  (73) 
CC[NH+](CC)CC/[NH+]=c1\ccc(CO)c2sc3ccccc3c(O)c1-2

>  <Set>  (73) 
G2 inactive

>  <Set_type>  (73) 
Train

>  <MW>  (73) 
358.51

>  <HBD>  (73) 
4

>  <HBA>  (73) 
2

>  <NRB>  (73) 
6

>  <NR>  (73) 
3

>  <NAR>  (73) 
3

>  <PSA>  (73) 
58.87

>  <Standard Type>  (73) 
nan

>  <Standard Relation>  (73) 
nan

>  <Standard Units>  (73) 
nan

>  <Standard Value>  (73) 
nan

>  <Assay ChEMBL ID>  (73) 
nan

>  <Assay Description>  (73) 
nan

>  <BAO Label>  (73) 
nan

>  <bits>  (73) 
<rdkit.DataStructs.cDataStructs.ExplicitBitVect object at 0x000002AD6E9958C0>

>  <Group>  (73) 
G2

$$$$

     RDKit          2D

 31 35  0  0  0  0  0  0  0  0999 V2000
    7.5000    2.5981    0.0000 O   0  0  0  0  0  0  0  0  0  0  0  0
    6.0000    2.5981    0.0000 C   0  0  0  0  0  0  0  0  0  0  0  0
    5.2500    1.2990    0.0000 C   0  0  0  0  0  0  0  0  0  0  0  0
    6.0000    0.0000    0.0000 O   0  0  0  0  0  0  0  0  0  0  0  0
    3.7500    1.2990    0.0000 C   0  0  0  0  0  0  0  0  0  0  0  0
    3.0000    2.5981    0.0000 O   0  0  0  0  0  0  0  0  0  0  0  0
    3.0000    0.0000    0.0000 C   0  0  0  0  0  0  0  0  0  0  0  0
    3.7500   -1.2990    0.0000 O   0  0  0  0  0  0  0  0  0  0  0  0
    1.5000    0.0000    0.0000 C   0  0  0  0  0  0  0  0  0  0  0  0
    0.7500   -1.2990    0.0000 N   0  0  0  0  0  0  0  0  0  0  0  0
   -0.7500   -1.2990    0.0000 C   0  0  0  0  0  0  0  0  0  0  0  0
   -1.5000    0.0000    0.0000 C   0  0  0  0  0  0  0  0  0  0  0  0
   -3.0000    0.0000    0.0000 C   0  0  0  0  0  0  0  0  0  0  0  0
   -3.7500    1.2990    0.0000 C   0  0  0  0  0  0  0  0  0  0  0  0
   -5.2500    1.2990    0.0000 C   0  0  0  0  0  0  0  0  0  0  0  0
   -6.0000    0.0000    0.0000 C   0  0  0  0  0  0  0  0  0  0  0  0
   -5.2500   -1.2990    0.0000 C   0  0  0  0  0  0  0  0  0  0  0  0
   -3.7500   -1.2990    0.0000 C   0  0  0  0  0  0  0  0  0  0  0  0
   -0.7500    1.2990    0.0000 C   0  0  0  0  0  0  0  0  0  0  0  0
    0.7500    1.2990    0.0000 N   0  0  0  0  0  4  0  0  0  0  0  0
    2.2500    1.2990    0.0000 C   0  0  0  0  0  0  0  0  0  0  0  0
    3.0000   -0.0000    0.0000 C   0  0  0  0  0  0  0  0  0  0  0  0
    4.5000   -0.0000    0.0000 C   0  0  0  0  0  0  0  0  0  0  0  0
    5.2500   -1.2990    0.0000 C   0  0  0  0  0  0  0  0  0  0  0  0
    6.7500   -1.2990    0.0000 C   0  0  0  0  0  0  0  0  0  0  0  0
    7.5000   -0.0000    0.0000 C   0  0  0  0  0  0  0  0  0  0  0  0
    6.7500    1.2990    0.0000 C   0  0  0  0  0  0  0  0  0  0  0  0
    5.2500    1.2990    0.0000 C   0  0  0  0  0  0  0  0  0  0  0  0
    2.2500   -1.2990    0.0000 C   0  0  0  0  0  0  0  0  0  0  0  0
    1.7010   -0.7500    0.0000 C   0  0  0  0  0  0  0  0  0  0  0  0
    1.7010   -2.2500    0.0000 O   0  0  0  0  0  0  0  0  0  0  0  0
  1  2  1  0
  2  3  1  0
  3  4  1  1
  3  5  1  0
  5  6  1  6
  5  7  1  0
  7  8  1  6
  7  9  1  0
  9 10  1  1
 10 11  1  0
 11 12  1  0
 12 13  1  6
 13 14  2  0
 14 15  1  0
 15 16  2  0
 16 17  1  0
 17 18  2  0
 12 19  1  0
 19 20  1  0
 20 21  1  0
 21 22  1  0
 22 23  1  6
 23 24  2  0
 24 25  1  0
 25 26  2  0
 26 27  1  0
 27 28  2  0
 22 29  1  0
 22 30  1  0
 30 31  1  0
 20  9  1  0
 28 23  1  0
 29 10  1  0
 30 12  1  0
 18 13  1  0
M  CHG  1  20   1
M  END
>  <Compound_ID>  (74) 
C35365982

>  <Active>  (74) 
0

>  <Smiles>  (74) 
OC[C@@H](O)[C@@H](O)[C@H](O)[C@H]1N2C[C@@]3(c4ccccc4)C[NH+]1C[C@@](c1ccccc1)(C2)C3O

>  <canonical_smi>  (74) 
OC[C@@H](O)[C@@H](O)[C@H](O)[C@H]1N2C[C@@]3(c4ccccc4)C[NH+]1C[C@@](c1ccccc1)(C2)C3O

>  <Set>  (74) 
G2 inactive

>  <Set_type>  (74) 
Train

>  <MW>  (74) 
427.52

>  <HBD>  (74) 
6

>  <HBA>  (74) 
6

>  <NRB>  (74) 
6

>  <NR>  (74) 
6

>  <NAR>  (74) 
2

>  <PSA>  (74) 
108.83

>  <Standard Type>  (74) 
nan

>  <Standard Relation>  (74) 
nan

>  <Standard Units>  (74) 
nan

>  <Standard Value>  (74) 
nan

>  <Assay ChEMBL ID>  (74) 
nan

>  <Assay Description>  (74) 
nan

>  <BAO Label>  (74) 
nan

>  <bits>  (74) 
<rdkit.DataStructs.cDataStructs.ExplicitBitVect object at 0x000002AD6E995F50>

>  <Group>  (74) 
G2

$$$$

     RDKit          2D

 28 30  0  0  0  0  0  0  0  0999 V2000
   -1.9564   -9.3686    0.0000 C   0  0  0  0  0  0  0  0  0  0  0  0
   -1.7996   -7.8768    0.0000 S   0  0  0  0  0  0  0  0  0  0  0  0
   -0.4293   -7.2667    0.0000 C   0  0  0  0  0  0  0  0  0  0  0  0
   -0.2725   -5.7749    0.0000 C   0  0  0  0  0  0  0  0  0  0  0  0
    1.0978   -5.1648    0.0000 C   0  0  0  0  0  0  0  0  0  0  0  0
    2.3113   -6.0465    0.0000 O   0  0  0  0  0  0  0  0  0  0  0  0
    1.2546   -3.6731    0.0000 N   0  0  0  0  0  0  0  0  0  0  0  0
    2.5537   -2.9231    0.0000 C   0  0  0  0  0  0  0  0  0  0  0  0
    2.2418   -1.4558    0.0000 C   0  0  0  0  0  0  0  0  0  0  0  0
    3.2455   -0.3411    0.0000 C   0  0  0  0  0  0  0  0  0  0  0  0
    2.7820    1.0855    0.0000 O   0  0  0  0  0  0  0  0  0  0  0  0
    4.7127   -0.6530    0.0000 N   0  0  0  0  0  0  0  0  0  0  0  0
    5.7164    0.4617    0.0000 C   0  0  0  0  0  0  0  0  0  0  0  0
    5.2529    1.8883    0.0000 C   0  0  0  0  0  0  0  0  0  0  0  0
    7.1836    0.1499    0.0000 C   0  0  0  0  0  0  0  0  0  0  0  0
    7.7937   -1.2204    0.0000 C   0  0  0  0  0  0  0  0  0  0  0  0
    7.0437   -2.5195    0.0000 C   0  0  0  0  0  0  0  0  0  0  0  0
    9.2855   -1.0637    0.0000 N   0  0  0  0  0  0  0  0  0  0  0  0
    9.5974    0.4036    0.0000 N   0  0  0  0  0  0  0  0  0  0  0  0
    8.2983    1.1536    0.0000 C   0  0  0  0  0  0  0  0  0  0  0  0
    8.1415    2.6453    0.0000 C   0  0  0  0  0  0  0  0  0  0  0  0
    0.7500   -1.2990    0.0000 C   0  0  0  0  0  0  0  0  0  0  0  0
    1.5000    0.0000    0.0000 C   0  0  0  0  0  0  0  0  0  0  0  0
    0.7500    1.2990    0.0000 C   0  0  0  0  0  0  0  0  0  0  0  0
   -0.7500    1.2990    0.0000 N   0  0  0  0  0  4  0  0  0  0  0  0
   -1.5000    0.0000    0.0000 C   0  0  0  0  0  0  0  0  0  0  0  0
   -0.7500   -1.2990    0.0000 C   0  0  0  0  0  0  0  0  0  0  0  0
    0.1399   -2.6694    0.0000 C   0  0  0  0  0  0  0  0  0  0  0  0
  1  2  1  0
  2  3  1  0
  3  4  1  0
  4  5  1  0
  5  6  2  0
  5  7  1  0
  7  8  1  0
  8  9  1  0
  9 10  1  6
 10 11  2  0
 10 12  1  0
 12 13  1  0
 13 14  1  1
 13 15  1  0
 15 16  1  0
 16 17  1  0
 16 18  2  0
 18 19  1  0
 19 20  1  0
 20 21  1  0
  9 22  1  0
 22 23  1  0
 23 24  1  0
 24 25  1  0
 25 26  1  0
 26 27  1  0
 22 28  1  0
 28  7  1  0
 20 15  2  0
 27 22  1  0
M  CHG  1  25   1
M  END
>  <Compound_ID>  (75) 
C44713964

>  <Active>  (75) 
0

>  <Smiles>  (75) 
CSCCC(=O)N1C[C@@H](C(=O)N[C@@H](C)c2c(C)n[nH]c2C)C2(CC[NH2+]CC2)C1

>  <canonical_smi>  (75) 
CSCCC(=O)N1C[C@@H](C(=O)N[C@@H](C)c2c(C)n[nH]c2C)C2(CC[NH2+]CC2)C1

>  <Set>  (75) 
G2 inactive

>  <Set_type>  (75) 
Train

>  <MW>  (75) 
408.59

>  <HBD>  (75) 
3

>  <HBA>  (75) 
4

>  <NRB>  (75) 
6

>  <NR>  (75) 
3

>  <NAR>  (75) 
1

>  <PSA>  (75) 
94.7

>  <Standard Type>  (75) 
nan

>  <Standard Relation>  (75) 
nan

>  <Standard Units>  (75) 
nan

>  <Standard Value>  (75) 
nan

>  <Assay ChEMBL ID>  (75) 
nan

>  <Assay Description>  (75) 
nan

>  <BAO Label>  (75) 
nan

>  <bits>  (75) 
<rdkit.DataStructs.cDataStructs.ExplicitBitVect object at 0x000002AD6E994120>

>  <Group>  (75) 
G2

$$$$

     RDKit          2D

 21 23  0  0  0  0  0  0  0  0999 V2000
    4.8308   -6.3240    0.0000 H   0  0  0  0  0  0  0  0  0  0  0  0
    4.6740   -4.8322    0.0000 N   0  0  0  0  0  0  0  0  0  0  0  0
    3.3037   -4.2221    0.0000 C   0  0  0  0  0  0  0  0  0  0  0  0
    2.9918   -2.7549    0.0000 O   0  0  0  0  0  0  0  0  0  0  0  0
    1.5000   -2.5981    0.0000 C   0  0  0  0  0  0  0  0  0  0  0  0
    0.7500   -1.2990    0.0000 C   0  0  0  0  0  0  0  0  0  0  0  0
    1.5000    0.0000    0.0000 C   0  0  0  0  0  0  0  0  0  0  0  0
    0.7500    1.2990    0.0000 C   0  0  0  0  0  0  0  0  0  0  0  0
   -0.7500    1.2990    0.0000 C   0  0  0  0  0  0  0  0  0  0  0  0
   -1.5000    0.0000    0.0000 C   0  0  0  0  0  0  0  0  0  0  0  0
   -0.7500   -1.2990    0.0000 C   0  0  0  0  0  0  0  0  0  0  0  0
    0.8899   -3.9684    0.0000 C   0  0  0  0  0  0  0  0  0  0  0  0
   -0.5773   -4.2803    0.0000 C   0  0  0  0  0  0  0  0  0  0  0  0
   -1.5810   -3.1655    0.0000 C   0  0  0  0  0  0  0  0  0  0  0  0
   -3.0482   -3.4774    0.0000 C   0  0  0  0  0  0  0  0  0  0  0  0
   -3.5118   -4.9040    0.0000 C   0  0  0  0  0  0  0  0  0  0  0  0
   -2.5081   -6.0187    0.0000 C   0  0  0  0  0  0  0  0  0  0  0  0
   -1.0409   -5.7068    0.0000 C   0  0  0  0  0  0  0  0  0  0  0  0
    2.0046   -4.9721    0.0000 C   0  0  0  0  0  0  0  0  0  0  0  0
    1.8478   -6.4639    0.0000 C   0  0  0  0  0  0  0  0  0  0  0  0
    3.0613   -7.3456    0.0000 N   0  0  0  0  0  4  0  0  0  0  0  0
  1  2  1  0
  2  3  2  0
  3  4  1  0
  4  5  1  0
  5  6  1  6
  6  7  2  0
  7  8  1  0
  8  9  2  0
  9 10  1  0
 10 11  2  0
  5 12  1  0
 12 13  1  0
 13 14  2  0
 14 15  1  0
 15 16  2  0
 16 17  1  0
 17 18  2  0
 12 19  2  0
 19 20  1  0
 20 21  1  0
 19  3  1  0
 11  6  1  0
 18 13  1  0
M  CHG  1  21   1
M  END
>  <Compound_ID>  (76) 
C44248838

>  <Active>  (76) 
0

>  <Smiles>  (76) 
[H]/N=C1/O[C@@H](c2ccccc2)C(c2ccccc2)=C1C[NH3+]

>  <canonical_smi>  (76) 
[H]/N=C1/O[C@@H](c2ccccc2)C(c2ccccc2)=C1C[NH3+]

>  <Set>  (76) 
G2 inactive

>  <Set_type>  (76) 
Train

>  <MW>  (76) 
265.34

>  <HBD>  (76) 
2

>  <HBA>  (76) 
1

>  <NRB>  (76) 
3

>  <NR>  (76) 
3

>  <NAR>  (76) 
2

>  <PSA>  (76) 
60.72

>  <Standard Type>  (76) 
nan

>  <Standard Relation>  (76) 
nan

>  <Standard Units>  (76) 
nan

>  <Standard Value>  (76) 
nan

>  <Assay ChEMBL ID>  (76) 
nan

>  <Assay Description>  (76) 
nan

>  <BAO Label>  (76) 
nan

>  <bits>  (76) 
<rdkit.DataStructs.cDataStructs.ExplicitBitVect object at 0x000002AD6E995D90>

>  <Group>  (76) 
G2

$$$$

     RDKit          2D

 21 24  0  0  0  0  0  0  0  0999 V2000
   -3.7054   -4.2601    0.0000 C   0  0  0  0  0  0  0  0  0  0  0  0
   -2.2500   -3.8971    0.0000 C   0  0  0  0  0  0  0  0  0  0  0  0
   -1.5000   -5.1962    0.0000 C   0  0  0  0  0  0  0  0  0  0  0  0
   -1.5000   -2.5981    0.0000 N   0  0  0  0  0  4  0  0  0  0  0  0
   -0.0000   -2.5981    0.0000 C   0  0  0  0  0  0  0  0  0  0  0  0
    0.7500   -1.2990    0.0000 C   0  0  0  0  0  0  0  0  0  0  0  0
    1.5000    0.0000    0.0000 C   0  0  0  0  0  0  0  0  0  0  0  0
    0.7500    1.2990    0.0000 C   0  0  0  0  0  0  0  0  0  0  0  0
   -0.7500    1.2990    0.0000 C   0  0  0  0  0  0  0  0  0  0  0  0
   -1.5000    0.0000    0.0000 C   0  0  0  0  0  0  0  0  0  0  0  0
   -2.2500   -1.2990    0.0000 C   0  0  0  0  0  0  0  0  0  0  0  0
   -0.7500   -1.2990    0.0000 C   0  0  0  0  0  0  0  0  0  0  0  0
   -1.5000   -2.5981    0.0000 N   0  0  0  0  0  4  0  0  0  0  0  0
   -3.0000   -2.5981    0.0000 C   0  0  0  0  0  0  0  0  0  0  0  0
   -3.8817   -3.8116    0.0000 C   0  0  0  0  0  0  0  0  0  0  0  0
   -5.3083   -3.3481    0.0000 C   0  0  0  0  0  0  0  0  0  0  0  0
   -5.3083   -1.8481    0.0000 N   0  0  0  0  0  4  0  0  0  0  0  0
   -6.5218   -0.9664    0.0000 C   0  0  0  0  0  0  0  0  0  0  0  0
   -8.0136   -0.8096    0.0000 C   0  0  0  0  0  0  0  0  0  0  0  0
   -7.1319    0.4039    0.0000 C   0  0  0  0  0  0  0  0  0  0  0  0
   -3.8817   -1.3846    0.0000 C   0  0  0  0  0  0  0  0  0  0  0  0
  1  2  1  0
  2  3  1  0
  2  4  1  0
  4  5  1  0
  6  5  1  6
  6  7  1  0
  7  8  1  0
  8  9  1  0
 10  9  1  6
 10 11  1  0
 10 12  1  0
 12 13  1  0
 14 13  1  6
 14 15  1  0
 15 16  1  0
 16 17  1  0
 17 18  1  0
 18 19  1  0
 19 20  1  0
 17 21  1  0
 11  4  1  0
 21 14  1  0
 12  6  1  0
 20 18  1  0
M  CHG  3   4   1  13   1  17   1
M  END
>  <Compound_ID>  (77) 
C49931106

>  <Active>  (77) 
0

>  <Smiles>  (77) 
CC(C)[NH+]1C[C@H]2CCC[C@@H](C1)C2[NH2+][C@@H]1CC[NH+](C2CC2)C1

>  <canonical_smi>  (77) 
CC(C)[NH+]1C[C@@H]2CCC[C@H](C1)C2[NH2+][C@@H]1CC[NH+](C2CC2)C1

>  <Set>  (77) 
G2 inactive

>  <Set_type>  (77) 
Train

>  <MW>  (77) 
294.51

>  <HBD>  (77) 
3

>  <HBA>  (77) 
0

>  <NRB>  (77) 
4

>  <NR>  (77) 
4

>  <NAR>  (77) 
0

>  <PSA>  (77) 
25.49

>  <Standard Type>  (77) 
nan

>  <Standard Relation>  (77) 
nan

>  <Standard Units>  (77) 
nan

>  <Standard Value>  (77) 
nan

>  <Assay ChEMBL ID>  (77) 
nan

>  <Assay Description>  (77) 
nan

>  <BAO Label>  (77) 
nan

>  <bits>  (77) 
<rdkit.DataStructs.cDataStructs.ExplicitBitVect object at 0x000002AD6E9960A0>

>  <Group>  (77) 
G2

$$$$

     RDKit          2D

 33 36  0  0  0  0  0  0  0  0999 V2000
    3.0000    0.0000    0.0000 C   0  0  0  0  0  0  0  0  0  0  0  0
    1.5000    0.0000    0.0000 N   0  0  0  0  0  4  0  0  0  0  0  0
    0.7500   -1.2990    0.0000 C   0  0  0  0  0  0  0  0  0  0  0  0
   -0.7500   -1.2990    0.0000 C   0  0  0  0  0  0  0  0  0  0  0  0
   -1.5000    0.0000    0.0000 C   0  0  0  0  0  0  0  0  0  0  0  0
   -0.7500    1.2990    0.0000 C   0  0  0  0  0  0  0  0  0  0  0  0
   -1.5000    2.5981    0.0000 C   0  0  0  0  0  0  0  0  0  0  0  0
   -2.9918    2.7549    0.0000 N   0  0  0  0  0  0  0  0  0  0  0  0
   -3.3037    4.2221    0.0000 S   0  0  0  0  0  0  0  0  0  0  0  0
   -2.0046    4.9721    0.0000 N   0  0  0  0  0  0  0  0  0  0  0  0
   -0.8899    3.9684    0.0000 C   0  0  0  0  0  0  0  0  0  0  0  0
    0.5773    4.2803    0.0000 O   0  0  0  0  0  0  0  0  0  0  0  0
    1.0409    5.7068    0.0000 C   0  0  0  0  0  0  0  0  0  0  0  0
    2.5081    6.0187    0.0000 C   0  0  0  0  0  0  0  0  0  0  0  0
    2.9716    7.4453    0.0000 C   0  0  0  0  0  0  0  0  0  0  0  0
    4.4388    7.7572    0.0000 C   0  0  0  0  0  0  0  0  0  0  0  0
    4.9023    9.1838    0.0000 C   0  0  0  0  0  0  0  0  0  0  0  0
    6.3696    9.4956    0.0000 C   0  0  0  0  0  0  0  0  0  0  0  0
    6.8331   10.9222    0.0000 C   0  0  0  0  0  0  0  0  0  0  0  0
    8.3003   11.2341    0.0000 O   0  0  0  0  0  0  0  0  0  0  0  0
    8.7638   12.6607    0.0000 C   0  0  0  0  0  0  0  0  0  0  0  0
    7.8822   13.8742    0.0000 N   0  0  0  0  0  0  0  0  0  0  0  0
    8.7638   15.0877    0.0000 S   0  0  0  0  0  0  0  0  0  0  0  0
   10.1904   14.6242    0.0000 N   0  0  0  0  0  0  0  0  0  0  0  0
   10.1904   13.1242    0.0000 C   0  0  0  0  0  0  0  0  0  0  0  0
   11.4039   12.2425    0.0000 C   0  0  0  0  0  0  0  0  0  0  0  0
   11.2472   10.7507    0.0000 C   0  0  0  0  0  0  0  0  0  0  0  0
   12.4607    9.8690    0.0000 C   0  0  0  0  0  0  0  0  0  0  0  0
   13.8310   10.4791    0.0000 C   0  0  0  0  0  0  0  0  0  0  0  0
   13.9878   11.9709    0.0000 N   0  0  0  0  0  4  0  0  0  0  0  0
   15.3581   12.5810    0.0000 C   0  0  0  0  0  0  0  0  0  0  0  0
   12.7743   12.8526    0.0000 C   0  0  0  0  0  0  0  0  0  0  0  0
    0.7500    1.2990    0.0000 C   0  0  0  0  0  0  0  0  0  0  0  0
  1  2  1  0
  2  3  1  0
  3  4  1  0
  4  5  1  0
  5  6  2  0
  6  7  1  0
  7  8  2  0
  8  9  1  0
  9 10  1  0
 10 11  2  0
 11 12  1  0
 12 13  1  0
 13 14  1  0
 14 15  1  0
 15 16  1  0
 16 17  1  0
 17 18  1  0
 18 19  1  0
 19 20  1  0
 20 21  1  0
 21 22  2  0
 22 23  1  0
 23 24  1  0
 24 25  2  0
 25 26  1  0
 26 27  2  0
 27 28  1  0
 28 29  1  0
 29 30  1  0
 30 31  1  0
 30 32  1  0
  6 33  1  0
 33  2  1  0
 11  7  1  0
 25 21  1  0
 32 26  1  0
M  CHG  2   2   1  30   1
M  END
>  <Compound_ID>  (78) 
C13471091

>  <Active>  (78) 
0

>  <Smiles>  (78) 
C[NH+]1CCC=C(c2nsnc2OCCCCCCCOc2nsnc2C2=CCC[NH+](C)C2)C1

>  <canonical_smi>  (78) 
C[NH+]1CCC=C(c2nsnc2OCCCCCCCOc2nsnc2C2=CCC[NH+](C)C2)C1

>  <Set>  (78) 
G2 inactive

>  <Set_type>  (78) 
Train

>  <MW>  (78) 
492.72

>  <HBD>  (78) 
2

>  <HBA>  (78) 
6

>  <NRB>  (78) 
12

>  <NR>  (78) 
4

>  <NAR>  (78) 
2

>  <PSA>  (78) 
78.9

>  <Standard Type>  (78) 
nan

>  <Standard Relation>  (78) 
nan

>  <Standard Units>  (78) 
nan

>  <Standard Value>  (78) 
nan

>  <Assay ChEMBL ID>  (78) 
nan

>  <Assay Description>  (78) 
nan

>  <BAO Label>  (78) 
nan

>  <bits>  (78) 
<rdkit.DataStructs.cDataStructs.ExplicitBitVect object at 0x000002AD6E994660>

>  <Group>  (78) 
G2

$$$$

     RDKit          2D

 23 27  0  0  0  0  0  0  0  0999 V2000
   -0.2131   -6.0423    0.0000 C   0  0  0  0  0  0  0  0  0  0  0  0
    1.2135   -5.5788    0.0000 C   0  0  0  0  0  0  0  0  0  0  0  0
    2.4271   -6.4605    0.0000 N   0  0  0  0  0  0  0  0  0  0  0  0
    3.6406   -5.5788    0.0000 N   0  0  0  0  0  0  0  0  0  0  0  0
    3.1771   -4.1522    0.0000 C   0  0  0  0  0  0  0  0  0  0  0  0
    1.6771   -4.1522    0.0000 C   0  0  0  0  0  0  0  0  0  0  0  0
    1.2135   -2.7256    0.0000 C   0  0  0  0  0  0  0  0  0  0  0  0
    2.4271   -1.8439    0.0000 C   0  0  0  0  0  0  0  0  0  0  0  0
    2.4271   -0.3439    0.0000 O   0  0  0  0  0  0  0  0  0  0  0  0
    3.6406   -2.7256    0.0000 N   0  0  0  0  0  0  0  0  0  0  0  0
    0.7500   -1.2990    0.0000 C   0  0  0  0  0  0  0  0  0  0  0  0
    1.5000    0.0000    0.0000 C   0  0  0  0  0  0  0  0  0  0  0  0
    0.7500    1.2990    0.0000 C   0  0  0  0  0  0  0  0  0  0  0  0
    1.5000    2.5981    0.0000 Br  0  0  0  0  0  0  0  0  0  0  0  0
   -0.7500    1.2990    0.0000 C   0  0  0  0  0  0  0  0  0  0  0  0
   -1.5000    0.0000    0.0000 C   0  0  0  0  0  0  0  0  0  0  0  0
   -0.7500   -1.2990    0.0000 C   0  0  0  0  0  0  0  0  0  0  0  0
   -1.2135   -2.7256    0.0000 C   0  0  0  0  0  0  0  0  0  0  0  0
   -2.4271   -3.6073    0.0000 O   0  0  0  0  0  0  0  0  0  0  0  0
   -1.9635   -5.0339    0.0000 C   0  0  0  0  0  0  0  0  0  0  0  0
   -2.8452   -6.2474    0.0000 N   0  0  0  0  0  0  0  0  0  0  0  0
   -0.4635   -5.0339    0.0000 N   0  0  0  0  0  0  0  0  0  0  0  0
   -0.0000   -3.6073    0.0000 C   0  0  0  0  0  0  0  0  0  0  0  0
  1  2  1  0
  2  3  1  0
  3  4  1  0
  4  5  2  0
  5  6  1  0
  6  7  1  0
  7  8  1  1
  8  9  2  0
  8 10  1  0
  7 11  1  0
 11 12  2  0
 12 13  1  0
 13 14  1  0
 13 15  2  0
 15 16  1  0
 16 17  2  0
 17 18  1  0
 18 19  1  0
 19 20  1  0
 20 21  1  0
 20 22  2  0
 22 23  1  0
  6  2  2  0
 23  7  1  0
 10  5  1  0
 17 11  1  0
 23 18  2  0
M  END
>  <Compound_ID>  (79) 
C20343641

>  <Active>  (79) 
0

>  <Smiles>  (79) 
Cc1[nH]nc2c1[C@@]1(C(=O)N2)c2cc(Br)ccc2-c2oc(N)nc21

>  <canonical_smi>  (79) 
Cc1[nH]nc2c1[C@@]1(C(=O)N2)c2cc(Br)ccc2-c2oc(N)nc21

>  <Set>  (79) 
G2 inactive

>  <Set_type>  (79) 
Train

>  <MW>  (79) 
372.18

>  <HBD>  (79) 
3

>  <HBA>  (79) 
5

>  <NRB>  (79) 
0

>  <NR>  (79) 
5

>  <NAR>  (79) 
3

>  <PSA>  (79) 
109.83

>  <Standard Type>  (79) 
nan

>  <Standard Relation>  (79) 
nan

>  <Standard Units>  (79) 
nan

>  <Standard Value>  (79) 
nan

>  <Assay ChEMBL ID>  (79) 
nan

>  <Assay Description>  (79) 
nan

>  <BAO Label>  (79) 
nan

>  <bits>  (79) 
<rdkit.DataStructs.cDataStructs.ExplicitBitVect object at 0x000002AD6E9963B0>

>  <Group>  (79) 
G2

$$$$

     RDKit          2D

 33 36  0  0  0  0  0  0  0  0999 V2000
    9.2325  -12.8093    0.0000 C   0  0  0  0  0  0  0  0  0  0  0  0
    9.0757  -11.3175    0.0000 C   0  0  0  0  0  0  0  0  0  0  0  0
    7.7053  -10.7074    0.0000 N   0  0  0  0  0  4  0  0  0  0  0  0
    6.4918  -11.5891    0.0000 C   0  0  0  0  0  0  0  0  0  0  0  0
    6.6486  -13.0809    0.0000 C   0  0  0  0  0  0  0  0  0  0  0  0
    7.5486   -9.2156    0.0000 C   0  0  0  0  0  0  0  0  0  0  0  0
    6.1782   -8.6055    0.0000 C   0  0  0  0  0  0  0  0  0  0  0  0
    6.0214   -7.1137    0.0000 C   0  0  0  0  0  0  0  0  0  0  0  0
    4.6511   -6.5036    0.0000 N   0  0  0  0  0  0  0  0  0  0  0  0
    4.4943   -5.0118    0.0000 C   0  0  0  0  0  0  0  0  0  0  0  0
    5.7079   -4.1302    0.0000 N   0  0  0  0  0  0  0  0  0  0  0  0
    5.5511   -2.6384    0.0000 C   0  0  0  0  0  0  0  0  0  0  0  0
    6.7646   -1.7567    0.0000 S   0  0  0  0  0  0  0  0  0  0  0  0
    8.1349   -2.3668    0.0000 C   0  0  0  0  0  0  0  0  0  0  0  0
    4.1807   -2.0283    0.0000 N   0  0  0  0  0  0  0  0  0  0  0  0
    2.9672   -2.9099    0.0000 C   0  0  0  0  0  0  0  0  0  0  0  0
    3.1240   -4.4017    0.0000 C   0  0  0  0  0  0  0  0  0  0  0  0
    1.7537   -5.0118    0.0000 S   0  0  0  0  0  0  0  0  0  0  0  0
    0.7500   -3.8971    0.0000 C   0  0  0  0  0  0  0  0  0  0  0  0
   -0.7500   -3.8971    0.0000 N   0  0  0  0  0  0  0  0  0  0  0  0
   -1.5000   -2.5981    0.0000 C   0  0  0  0  0  0  0  0  0  0  0  0
   -3.0000   -2.5981    0.0000 C   0  0  0  0  0  0  0  0  0  0  0  0
   -3.7500   -3.8971    0.0000 C   0  0  0  0  0  0  0  0  0  0  0  0
   -3.7500   -1.2990    0.0000 C   0  0  0  0  0  0  0  0  0  0  0  0
   -0.7500   -1.2990    0.0000 C   0  0  0  0  0  0  0  0  0  0  0  0
    0.7500   -1.2990    0.0000 C   0  0  0  0  0  0  0  0  0  0  0  0
    1.5000   -2.5981    0.0000 C   0  0  0  0  0  0  0  0  0  0  0  0
    1.5000    0.0000    0.0000 C   0  0  0  0  0  0  0  0  0  0  0  0
    0.7500    1.2990    0.0000 C   0  0  0  0  0  0  0  0  0  0  0  0
    0.4895    2.7762    0.0000 C   0  0  0  0  0  0  0  0  0  0  0  0
    2.1595    1.8121    0.0000 C   0  0  0  0  0  0  0  0  0  0  0  0
   -0.7500    1.2990    0.0000 O   0  0  0  0  0  0  0  0  0  0  0  0
   -1.5000    0.0000    0.0000 C   0  0  0  0  0  0  0  0  0  0  0  0
  1  2  1  0
  2  3  1  0
  3  4  1  0
  4  5  1  0
  3  6  1  0
  6  7  1  0
  7  8  1  0
  8  9  1  0
  9 10  1  0
 10 11  2  0
 11 12  1  0
 12 13  1  0
 13 14  1  0
 12 15  2  0
 15 16  1  0
 16 17  2  0
 17 18  1  0
 18 19  1  0
 19 20  2  0
 20 21  1  0
 21 22  1  0
 22 23  1  0
 22 24  1  0
 21 25  2  0
 25 26  1  0
 26 27  2  0
 26 28  1  0
 28 29  1  0
 29 30  1  0
 29 31  1  0
 29 32  1  0
 32 33  1  0
 17 10  1  0
 27 19  1  0
 27 16  1  0
 33 25  1  0
M  CHG  1   3   1
M  END
>  <Compound_ID>  (80) 
C09210443

>  <Active>  (80) 
0

>  <Smiles>  (80) 
CC[NH+](CC)CCCNc1nc(SC)nc2c1sc1nc(C(C)C)c3c(c12)CC(C)(C)OC3

>  <canonical_smi>  (80) 
CC[NH+](CC)CCCNc1nc(SC)nc2c1sc1nc(C(C)C)c3c(c12)CC(C)(C)OC3

>  <Set>  (80) 
G2 inactive

>  <Set_type>  (80) 
Train

>  <MW>  (80) 
488.75

>  <HBD>  (80) 
2

>  <HBA>  (80) 
6

>  <NRB>  (80) 
9

>  <NR>  (80) 
4

>  <NAR>  (80) 
3

>  <PSA>  (80) 
64.37

>  <Standard Type>  (80) 
nan

>  <Standard Relation>  (80) 
nan

>  <Standard Units>  (80) 
nan

>  <Standard Value>  (80) 
nan

>  <Assay ChEMBL ID>  (80) 
nan

>  <Assay Description>  (80) 
nan

>  <BAO Label>  (80) 
nan

>  <bits>  (80) 
<rdkit.DataStructs.cDataStructs.ExplicitBitVect object at 0x000002AD6E994F20>

>  <Group>  (80) 
G2

$$$$

     RDKit          2D

 33 36  0  0  0  0  0  0  0  0999 V2000
   -0.7500   -9.0933    0.0000 O   0  0  0  0  0  0  0  0  0  0  0  0
    0.7500   -9.0933    0.0000 C   0  0  0  0  0  0  0  0  0  0  0  0
    1.5000   -7.7942    0.0000 N   0  0  0  0  0  0  0  0  0  0  0  0
    0.7500   -6.4952    0.0000 C   0  0  0  0  0  0  0  0  0  0  0  0
    1.5000   -5.1962    0.0000 C   0  0  0  0  0  0  0  0  0  0  0  0
    0.7500   -3.8971    0.0000 S   0  0  0  0  0  0  0  0  0  0  0  0
    1.5000   -2.5981    0.0000 C   0  0  0  0  0  0  0  0  0  0  0  0
    0.7500   -1.2990    0.0000 C   0  0  0  0  0  0  0  0  0  0  0  0
    1.5000    0.0000    0.0000 C   0  0  0  0  0  0  0  0  0  0  0  0
    0.7500    1.2990    0.0000 C   0  0  0  0  0  0  0  0  0  0  0  0
   -0.7500    1.2990    0.0000 C   0  0  0  0  0  0  0  0  0  0  0  0
   -1.5000    0.0000    0.0000 C   0  0  0  0  0  0  0  0  0  0  0  0
   -3.0000    0.0000    0.0000 Cl  0  0  0  0  0  0  0  0  0  0  0  0
   -0.7500   -1.2990    0.0000 C   0  0  0  0  0  0  0  0  0  0  0  0
    1.5000  -10.3923    0.0000 C   0  0  0  0  0  0  0  0  0  0  0  0
    0.7500  -11.6913    0.0000 C   0  0  0  0  0  0  0  0  0  0  0  0
    1.5000  -12.9904    0.0000 C   0  0  0  0  0  0  0  0  0  0  0  0
    3.0000  -12.9904    0.0000 C   0  0  0  0  0  0  0  0  0  0  0  0
    3.7500  -11.6913    0.0000 N   0  0  0  0  0  4  0  0  0  0  0  0
    5.2500  -11.6913    0.0000 C   0  0  0  0  0  0  0  0  0  0  0  0
    6.0000  -12.9904    0.0000 C   0  0  0  0  0  0  0  0  0  0  0  0
    7.4918  -13.1472    0.0000 N   0  0  0  0  0  0  0  0  0  0  0  0
    7.8037  -14.6144    0.0000 C   0  0  0  0  0  0  0  0  0  0  0  0
    9.1740  -15.2245    0.0000 C   0  0  0  0  0  0  0  0  0  0  0  0
    9.3308  -16.7163    0.0000 C   0  0  0  0  0  0  0  0  0  0  0  0
   10.7011  -17.3264    0.0000 C   0  0  0  0  0  0  0  0  0  0  0  0
   11.9146  -16.4447    0.0000 C   0  0  0  0  0  0  0  0  0  0  0  0
   13.2849  -17.0548    0.0000 F   0  0  0  0  0  0  0  0  0  0  0  0
   11.7578  -14.9529    0.0000 C   0  0  0  0  0  0  0  0  0  0  0  0
   10.3875  -14.3428    0.0000 C   0  0  0  0  0  0  0  0  0  0  0  0
    6.5046  -15.3644    0.0000 N   0  0  0  0  0  0  0  0  0  0  0  0
    5.3899  -14.3607    0.0000 O   0  0  0  0  0  0  0  0  0  0  0  0
    3.0000  -10.3923    0.0000 C   0  0  0  0  0  0  0  0  0  0  0  0
  1  2  2  0
  2  3  1  0
  3  4  1  0
  4  5  1  0
  5  6  1  0
  6  7  1  0
  7  8  1  0
  8  9  2  0
  9 10  1  0
 10 11  2  0
 11 12  1  0
 12 13  1  0
 12 14  2  0
 15  2  1  6
 15 16  1  0
 16 17  1  0
 17 18  1  0
 18 19  1  0
 19 20  1  0
 20 21  1  0
 21 22  2  0
 22 23  1  0
 23 24  1  0
 24 25  2  0
 25 26  1  0
 26 27  2  0
 27 28  1  0
 27 29  1  0
 29 30  2  0
 23 31  2  0
 31 32  1  0
 19 33  1  0
 14  8  1  0
 33 15  1  0
 32 21  1  0
 30 24  1  0
M  CHG  1  19   1
M  END
>  <Compound_ID>  (81) 
C38893897

>  <Active>  (81) 
0

>  <Smiles>  (81) 
O=C(NCCSCc1cccc(Cl)c1)[C@H]1CCC[NH+](Cc2nc(-c3ccc(F)cc3)no2)C1

>  <canonical_smi>  (81) 
O=C(NCCSCc1cccc(Cl)c1)[C@H]1CCC[NH+](Cc2nc(-c3ccc(F)cc3)no2)C1

>  <Set>  (81) 
G2 inactive

>  <Set_type>  (81) 
Train

>  <MW>  (81) 
490.02

>  <HBD>  (81) 
2

>  <HBA>  (81) 
5

>  <NRB>  (81) 
9

>  <NR>  (81) 
4

>  <NAR>  (81) 
3

>  <PSA>  (81) 
72.46

>  <Standard Type>  (81) 
nan

>  <Standard Relation>  (81) 
nan

>  <Standard Units>  (81) 
nan

>  <Standard Value>  (81) 
nan

>  <Assay ChEMBL ID>  (81) 
nan

>  <Assay Description>  (81) 
nan

>  <BAO Label>  (81) 
nan

>  <bits>  (81) 
<rdkit.DataStructs.cDataStructs.ExplicitBitVect object at 0x000002AD6E977E60>

>  <Group>  (81) 
G2

$$$$

     RDKit          2D

 19 22  0  0  0  0  0  0  0  0999 V2000
    2.6401   -3.1891    0.0000 N   0  0  0  0  0  0  0  0  0  0  0  0
    1.2135   -2.7256    0.0000 C   0  0  0  0  0  0  0  0  0  0  0  0
    0.7500   -1.2990    0.0000 C   0  0  0  0  0  0  0  0  0  0  0  0
    1.5000    0.0000    0.0000 C   0  0  0  0  0  0  0  0  0  0  0  0
    0.7500    1.2990    0.0000 C   0  0  0  0  0  0  0  0  0  0  0  0
   -0.7500    1.2990    0.0000 C   0  0  0  0  0  0  0  0  0  0  0  0
   -1.5000    0.0000    0.0000 N   0  0  0  0  0  0  0  0  0  0  0  0
   -0.7500   -1.2990    0.0000 C   0  0  0  0  0  0  0  0  0  0  0  0
   -1.2135   -2.7256    0.0000 S   0  0  0  0  0  0  0  0  0  0  0  0
   -0.0000   -3.6073    0.0000 C   0  0  0  0  0  0  0  0  0  0  0  0
   -0.0000   -5.1073    0.0000 C   0  0  0  0  0  0  0  0  0  0  0  0
    1.2135   -5.9890    0.0000 N   0  0  0  0  0  0  0  0  0  0  0  0
    0.7500   -7.4156    0.0000 N   0  0  0  0  0  0  0  0  0  0  0  0
   -0.7500   -7.4156    0.0000 C   0  0  0  0  0  0  0  0  0  0  0  0
   -1.6317   -8.6291    0.0000 S   0  0  0  0  0  1  0  0  0  0  0  0
   -1.2135   -5.9890    0.0000 N   0  0  0  0  0  0  0  0  0  0  0  0
   -2.6401   -5.5255    0.0000 C   0  0  0  0  0  0  0  0  0  0  0  0
   -4.1073   -5.8373    0.0000 C   0  0  0  0  0  0  0  0  0  0  0  0
   -3.6438   -4.4107    0.0000 C   0  0  0  0  0  0  0  0  0  0  0  0
  2  1  1  6
  2  3  1  0
  3  4  2  0
  4  5  1  0
  5  6  2  0
  6  7  1  0
  7  8  2  0
  8  9  1  0
  9 10  1  0
 10 11  1  1
 11 12  2  0
 12 13  1  0
 13 14  2  0
 14 15  1  0
 14 16  1  0
 16 17  1  0
 17 18  1  0
 18 19  1  0
 10  2  1  0
 16 11  1  0
 19 17  1  0
  8  3  1  0
M  CHG  1  15  -1
M  END
>  <Compound_ID>  (82) 
C63348927

>  <Active>  (82) 
0

>  <Smiles>  (82) 
N[C@H]1c2cccnc2S[C@@H]1c1nnc([S-])n1C1CC1

>  <canonical_smi>  (82) 
N[C@H]1c2cccnc2S[C@@H]1c1nnc([S-])n1C1CC1

>  <Set>  (82) 
G2 inactive

>  <Set_type>  (82) 
Train

>  <MW>  (82) 
290.4

>  <HBD>  (82) 
1

>  <HBA>  (82) 
6

>  <NRB>  (82) 
2

>  <NR>  (82) 
4

>  <NAR>  (82) 
2

>  <PSA>  (82) 
69.62

>  <Standard Type>  (82) 
nan

>  <Standard Relation>  (82) 
nan

>  <Standard Units>  (82) 
nan

>  <Standard Value>  (82) 
nan

>  <Assay ChEMBL ID>  (82) 
nan

>  <Assay Description>  (82) 
nan

>  <BAO Label>  (82) 
nan

>  <bits>  (82) 
<rdkit.DataStructs.cDataStructs.ExplicitBitVect object at 0x000002AD6E974270>

>  <Group>  (82) 
G2

$$$$

     RDKit          2D

 15 16  0  0  0  0  0  0  0  0999 V2000
    3.0000    0.0000    0.0000 C   0  0  0  0  0  0  0  0  0  0  0  0
    1.5000    0.0000    0.0000 C   0  0  0  0  0  0  0  0  0  0  0  0
    0.7500   -1.2990    0.0000 C   0  0  0  0  0  0  0  0  0  0  0  0
   -0.7500   -1.2990    0.0000 C   0  0  0  0  0  0  0  0  0  0  0  0
   -1.5000    0.0000    0.0000 C   0  0  0  0  0  0  0  0  0  0  0  0
   -0.7500    1.2990    0.0000 C   0  0  0  0  0  0  0  0  0  0  0  0
    0.7500    1.2990    0.0000 C   0  0  0  0  0  0  0  0  0  0  0  0
    0.4895    2.7762    0.0000 C   0  0  0  0  0  0  0  0  0  0  0  0
    1.6386    3.7404    0.0000 O   0  0  0  0  0  1  0  0  0  0  0  0
    2.1595    1.8121    0.0000 N   0  0  0  0  0  4  0  0  0  0  0  0
    3.3086    0.8479    0.0000 C   0  0  0  0  0  0  0  0  0  0  0  0
    4.7181    1.3609    0.0000 C   0  0  0  0  0  0  0  0  0  0  0  0
    4.9786    2.8381    0.0000 N   0  0  0  0  0  0  0  0  0  0  0  0
    3.8296    3.8023    0.0000 C   0  0  0  0  0  0  0  0  0  0  0  0
    2.4200    3.2893    0.0000 C   0  0  0  0  0  0  0  0  0  0  0  0
  2  1  1  6
  2  3  1  0
  3  4  1  0
  4  5  1  0
  5  6  1  0
  6  7  1  0
  7  8  1  6
  8  9  1  0
  7 10  1  0
 10 11  1  0
 11 12  1  0
 12 13  1  0
 13 14  1  0
 14 15  1  0
  7  2  1  0
 15 10  1  0
M  CHG  2   9  -1  10   1
M  END
>  <Compound_ID>  (83) 
C38120536

>  <Active>  (83) 
0

>  <Smiles>  (83) 
C[C@@H]1CCCC[C@@]1(C[O-])[NH+]1CCNCC1

>  <canonical_smi>  (83) 
C[C@@H]1CCCC[C@@]1(C[O-])[NH+]1CCNCC1

>  <Set>  (83) 
G2 inactive

>  <Set_type>  (83) 
Train

>  <MW>  (83) 
212.34

>  <HBD>  (83) 
2

>  <HBA>  (83) 
2

>  <NRB>  (83) 
2

>  <NR>  (83) 
2

>  <NAR>  (83) 
0

>  <PSA>  (83) 
39.53

>  <Standard Type>  (83) 
nan

>  <Standard Relation>  (83) 
nan

>  <Standard Units>  (83) 
nan

>  <Standard Value>  (83) 
nan

>  <Assay ChEMBL ID>  (83) 
nan

>  <Assay Description>  (83) 
nan

>  <BAO Label>  (83) 
nan

>  <bits>  (83) 
<rdkit.DataStructs.cDataStructs.ExplicitBitVect object at 0x000002AD6E9745F0>

>  <Group>  (83) 
G2

$$$$

     RDKit          2D

  8  7  0  0  0  0  0  0  0  0999 V2000
   -0.7500   -1.2990    0.0000 O   0  0  0  0  0  0  0  0  0  0  0  0
    0.0000    0.0000    0.0000 N   0  0  0  0  0  0  0  0  0  0  0  0
    1.5000    0.0000    0.0000 C   0  0  0  0  0  0  0  0  0  0  0  0
    2.2500    1.2990    0.0000 Br  0  0  0  0  0  0  0  0  0  0  0  0
    2.2500   -1.2990    0.0000 C   0  0  0  0  0  0  0  0  0  0  0  0
    1.5000   -2.5981    0.0000 Br  0  0  0  0  0  0  0  0  0  0  0  0
    3.7500   -1.2990    0.0000 N   0  0  0  0  0  0  0  0  0  0  0  0
    4.5000    0.0000    0.0000 O   0  0  0  0  0  0  0  0  0  0  0  0
  1  2  1  0
  2  3  2  0
  3  4  1  0
  3  5  1  0
  5  6  1  0
  5  7  2  0
  7  8  1  0
M  END
>  <Compound_ID>  (84) 
C06691135

>  <Active>  (84) 
0

>  <Smiles>  (84) 
O/N=C(Br)\C(Br)=N/O

>  <canonical_smi>  (84) 
O/N=C(Br)\C(Br)=N/O

>  <Set>  (84) 
G2 inactive

>  <Set_type>  (84) 
Train

>  <MW>  (84) 
245.86

>  <HBD>  (84) 
2

>  <HBA>  (84) 
2

>  <NRB>  (84) 
1

>  <NR>  (84) 
0

>  <NAR>  (84) 
0

>  <PSA>  (84) 
65.18

>  <Standard Type>  (84) 
nan

>  <Standard Relation>  (84) 
nan

>  <Standard Units>  (84) 
nan

>  <Standard Value>  (84) 
nan

>  <Assay ChEMBL ID>  (84) 
nan

>  <Assay Description>  (84) 
nan

>  <BAO Label>  (84) 
nan

>  <bits>  (84) 
<rdkit.DataStructs.cDataStructs.ExplicitBitVect object at 0x000002AD6E9743C0>

>  <Group>  (84) 
G2

$$$$

     RDKit          2D

 17 18  0  0  0  0  0  0  0  0999 V2000
   -6.3781   -6.4698    0.0000 N   0  0  0  0  0  0  0  0  0  0  0  0
   -5.1646   -7.3514    0.0000 C   0  0  0  0  0  0  0  0  0  0  0  0
   -3.7943   -6.7413    0.0000 C   0  0  0  0  0  0  0  0  0  0  0  0
   -2.4240   -6.1312    0.0000 C   0  0  0  0  0  0  0  0  0  0  0  0
   -1.0537   -5.5211    0.0000 C   0  0  0  0  0  0  0  0  0  0  0  0
    0.2454   -6.2711    0.0000 C   0  0  0  0  0  0  0  0  0  0  0  0
    1.3601   -5.2674    0.0000 C   0  0  0  0  0  0  0  0  0  0  0  0
    0.7500   -3.8971    0.0000 C   0  0  0  0  0  0  0  0  0  0  0  0
    1.5000   -2.5981    0.0000 C   0  0  0  0  0  0  0  0  0  0  0  0
    0.7500   -1.2990    0.0000 N   0  0  0  0  0  0  0  0  0  0  0  0
    1.5000    0.0000    0.0000 C   0  0  0  0  0  0  0  0  0  0  0  0
    0.7500    1.2990    0.0000 C   0  0  0  0  0  0  0  0  0  0  0  0
   -0.7500    1.2990    0.0000 C   0  0  0  0  0  0  0  0  0  0  0  0
   -1.5000    2.5981    0.0000 O   0  0  0  0  0  0  0  0  0  0  0  0
   -1.5000    0.0000    0.0000 C   0  0  0  0  0  0  0  0  0  0  0  0
   -0.7500   -1.2990    0.0000 C   0  0  0  0  0  0  0  0  0  0  0  0
   -0.7418   -4.0539    0.0000 S   0  0  0  0  0  0  0  0  0  0  0  0
  1  2  1  0
  2  3  1  0
  3  4  3  0
  4  5  1  0
  5  6  2  0
  6  7  1  0
  7  8  2  0
  8  9  1  0
  9 10  1  0
 10 11  1  0
 11 12  2  0
 12 13  1  0
 13 14  2  0
 13 15  1  0
 15 16  2  0
  8 17  1  0
 17  5  1  0
 16 10  1  0
M  END
>  <Compound_ID>  (85) 
C61628376

>  <Active>  (85) 
0

>  <Smiles>  (85) 
NCC#Cc1ccc(Cn2ccc(=O)cc2)s1

>  <canonical_smi>  (85) 
NCC#Cc1ccc(Cn2ccc(=O)cc2)s1

>  <Set>  (85) 
G2 inactive

>  <Set_type>  (85) 
Train

>  <MW>  (85) 
244.32

>  <HBD>  (85) 
1

>  <HBA>  (85) 
2

>  <NRB>  (85) 
2

>  <NR>  (85) 
2

>  <NAR>  (85) 
2

>  <PSA>  (85) 
48.02

>  <Standard Type>  (85) 
nan

>  <Standard Relation>  (85) 
nan

>  <Standard Units>  (85) 
nan

>  <Standard Value>  (85) 
nan

>  <Assay ChEMBL ID>  (85) 
nan

>  <Assay Description>  (85) 
nan

>  <BAO Label>  (85) 
nan

>  <bits>  (85) 
<rdkit.DataStructs.cDataStructs.ExplicitBitVect object at 0x000002AD6E9B4DD0>

>  <Group>  (85) 
G2

$$$$

     RDKit          2D

 17 19  0  0  0  0  0  0  0  0999 V2000
    3.7500   -1.2990    0.0000 N   0  0  0  0  0  0  0  0  0  0  0  0
    3.0000    0.0000    0.0000 C   0  0  0  0  0  0  0  0  0  0  0  0
    3.7500    1.2990    0.0000 S   0  0  0  0  0  0  0  0  0  0  0  0
    1.5000    0.0000    0.0000 N   0  0  0  0  0  0  0  0  0  0  0  0
    0.7500   -1.2990    0.0000 C   0  0  0  0  0  0  0  0  0  0  0  0
   -0.7500   -1.2990    0.0000 C   0  0  0  0  0  0  0  0  0  0  0  0
   -1.5000    0.0000    0.0000 C   0  0  0  0  0  0  0  0  0  0  0  0
   -0.7500    1.2990    0.0000 C   0  0  0  0  0  0  0  0  0  0  0  0
    0.7500    1.2990    0.0000 C   0  0  0  0  0  0  0  0  0  0  0  0
   -2.2500    1.2990    0.0000 C   0  0  0  0  0  0  0  0  0  0  0  0
   -3.0000    2.5981    0.0000 C   0  0  0  0  0  0  0  0  0  0  0  0
   -4.5000    2.5981    0.0000 C   0  0  0  0  0  0  0  0  0  0  0  0
   -5.2500    1.2990    0.0000 C   0  0  0  0  0  0  0  0  0  0  0  0
   -4.5000    0.0000    0.0000 C   0  0  0  0  0  0  0  0  0  0  0  0
   -5.2500   -1.2990    0.0000 O   0  0  0  0  0  0  0  0  0  0  0  0
   -3.0000    0.0000    0.0000 N   0  0  0  0  0  0  0  0  0  0  0  0
   -2.2500   -1.2990    0.0000 C   0  0  0  0  0  0  0  0  0  0  0  0
  1  2  1  0
  2  3  2  0
  2  4  1  0
  4  5  1  0
  6  5  1  1
  6  7  1  0
  7  8  1  0
  8  9  1  1
  8 10  1  0
 10 11  2  0
 11 12  1  0
 12 13  2  0
 13 14  1  0
 14 15  2  0
 14 16  1  0
 16 17  1  0
  9  4  1  0
 16 10  1  0
 17  6  1  0
M  END
>  <Compound_ID>  (86) 
C66089423

>  <Active>  (86) 
0

>  <Smiles>  (86) 
NC(=S)N1C[C@@H]2C[C@H](C1)c1cccc(=O)n1C2

>  <canonical_smi>  (86) 
NC(=S)N1C[C@@H]2C[C@H](C1)c1cccc(=O)n1C2

>  <Set>  (86) 
G2 inactive

>  <Set_type>  (86) 
Train

>  <MW>  (86) 
249.34

>  <HBD>  (86) 
1

>  <HBA>  (86) 
4

>  <NRB>  (86) 
0

>  <NR>  (86) 
3

>  <NAR>  (86) 
1

>  <PSA>  (86) 
51.26

>  <Standard Type>  (86) 
nan

>  <Standard Relation>  (86) 
nan

>  <Standard Units>  (86) 
nan

>  <Standard Value>  (86) 
nan

>  <Assay ChEMBL ID>  (86) 
nan

>  <Assay Description>  (86) 
nan

>  <BAO Label>  (86) 
nan

>  <bits>  (86) 
<rdkit.DataStructs.cDataStructs.ExplicitBitVect object at 0x000002AD6E9B4F20>

>  <Group>  (86) 
G2

$$$$

     RDKit          2D

 15 17  0  0  0  0  0  0  0  0999 V2000
   -0.0967    5.1517    0.0000 O   0  0  0  0  0  0  0  0  0  0  0  0
   -0.4086    3.6844    0.0000 C   0  0  0  0  0  0  0  0  0  0  0  0
    0.7062    2.6807    0.0000 N   0  0  0  0  0  0  0  0  0  0  0  0
    0.3943    1.2135    0.0000 C   0  0  0  0  0  0  0  0  0  0  0  0
    1.2760    0.0000    0.0000 N   0  0  0  0  0  0  0  0  0  0  0  0
    0.3943   -1.2135    0.0000 N   0  0  0  0  0  0  0  0  0  0  0  0
   -1.0323   -0.7500    0.0000 C   0  0  0  0  0  0  0  0  0  0  0  0
   -1.0323    0.7500    0.0000 C   0  0  0  0  0  0  0  0  0  0  0  0
   -2.1470    1.7537    0.0000 C   0  0  0  0  0  0  0  0  0  0  0  0
   -3.5736    1.2902    0.0000 C   0  0  0  0  0  0  0  0  0  0  0  0
   -4.0371   -0.1364    0.0000 C   0  0  0  0  0  0  0  0  0  0  0  0
   -5.5371   -0.1364    0.0000 C   0  0  0  0  0  0  0  0  0  0  0  0
   -6.0006    1.2902    0.0000 S   0  0  0  0  0  0  0  0  0  0  0  0
   -4.7871    2.1718    0.0000 C   0  0  0  0  0  0  0  0  0  0  0  0
   -1.8351    3.2209    0.0000 C   0  0  0  0  0  0  0  0  0  0  0  0
  1  2  1  0
  2  3  2  0
  3  4  1  0
  4  5  2  0
  5  6  1  0
  6  7  1  0
  7  8  2  0
  8  9  1  0
  9 10  1  1
 10 11  1  0
 11 12  2  0
 12 13  1  0
 13 14  1  0
  9 15  1  0
 15  2  1  0
  8  4  1  0
 14 10  2  0
M  END
>  <Compound_ID>  (87) 
C20720251

>  <Active>  (87) 
0

>  <Smiles>  (87) 
OC1=Nc2n[nH]cc2[C@@H](c2ccsc2)C1

>  <canonical_smi>  (87) 
OC1=Nc2n[nH]cc2[C@@H](c2ccsc2)C1

>  <Set>  (87) 
G2 inactive

>  <Set_type>  (87) 
Train

>  <MW>  (87) 
219.27

>  <HBD>  (87) 
2

>  <HBA>  (87) 
2

>  <NRB>  (87) 
1

>  <NR>  (87) 
3

>  <NAR>  (87) 
2

>  <PSA>  (87) 
61.27

>  <Standard Type>  (87) 
nan

>  <Standard Relation>  (87) 
nan

>  <Standard Units>  (87) 
nan

>  <Standard Value>  (87) 
nan

>  <Assay ChEMBL ID>  (87) 
nan

>  <Assay Description>  (87) 
nan

>  <BAO Label>  (87) 
nan

>  <bits>  (87) 
<rdkit.DataStructs.cDataStructs.ExplicitBitVect object at 0x000002AD6E9B5BD0>

>  <Group>  (87) 
G2

$$$$

     RDKit          2D

 10 11  0  0  0  0  0  0  0  0999 V2000
    1.5000    0.0000    0.0000 C   0  0  0  0  0  0  0  0  0  0  0  0
    0.7500   -1.2990    0.0000 C   0  0  0  0  0  0  0  0  0  0  0  0
   -0.7500   -1.2990    0.0000 C   0  0  0  0  0  0  0  0  0  0  0  0
   -1.5000    0.0000    0.0000 C   0  0  0  0  0  0  0  0  0  0  0  0
   -0.7500    1.2990    0.0000 C   0  0  0  0  0  0  0  0  0  0  0  0
    0.7500    1.2990    0.0000 C   0  0  0  0  0  0  0  0  0  0  0  0
   -2.3817   -1.2135    0.0000 O   0  0  0  0  0  0  0  0  0  0  0  0
   -3.8083   -0.7500    0.0000 C   0  0  0  0  0  0  0  0  0  0  0  0
   -3.8083    0.7500    0.0000 C   0  0  0  0  0  0  0  0  0  0  0  0
   -2.3817    1.2135    0.0000 O   0  0  0  0  0  0  0  0  0  0  0  0
  1  2  1  0
  2  3  1  0
  3  4  1  0
  4  5  1  0
  5  6  1  0
  4  7  1  0
  7  8  1  0
  8  9  1  0
  9 10  1  0
  6  1  1  0
 10  4  1  0
M  END
>  <Compound_ID>  (88) 
C00407081

>  <Active>  (88) 
0

>  <Smiles>  (88) 
C1CCC2(CC1)OCCO2

>  <canonical_smi>  (88) 
C1CCC2(CC1)OCCO2

>  <Set>  (88) 
G2 inactive

>  <Set_type>  (88) 
Train

>  <MW>  (88) 
142.2

>  <HBD>  (88) 
0

>  <HBA>  (88) 
2

>  <NRB>  (88) 
0

>  <NR>  (88) 
2

>  <NAR>  (88) 
0

>  <PSA>  (88) 
18.46

>  <Standard Type>  (88) 
nan

>  <Standard Relation>  (88) 
nan

>  <Standard Units>  (88) 
nan

>  <Standard Value>  (88) 
nan

>  <Assay ChEMBL ID>  (88) 
nan

>  <Assay Description>  (88) 
nan

>  <BAO Label>  (88) 
nan

>  <bits>  (88) 
<rdkit.DataStructs.cDataStructs.ExplicitBitVect object at 0x000002AD6E9B6110>

>  <Group>  (88) 
G2

$$$$

     RDKit          2D

 10 11  0  0  0  0  0  0  0  0999 V2000
    0.0000   -5.1073    0.0000 O   0  0  0  0  0  0  0  0  0  0  0  0
   -0.0000   -3.6073    0.0000 C   0  0  0  0  0  0  0  0  0  0  0  0
   -1.2135   -2.7256    0.0000 S   0  0  0  0  0  0  0  0  0  0  0  0
   -0.7500   -1.2990    0.0000 C   0  0  0  0  0  0  0  0  0  0  0  0
    0.7500   -1.2990    0.0000 C   0  0  0  0  0  0  0  0  0  0  0  0
    1.2135   -2.7256    0.0000 S   0  0  0  0  0  0  0  0  0  0  0  0
    1.5000    0.0000    0.0000 C   0  0  0  0  0  0  0  0  0  0  0  0
    0.7500    1.2990    0.0000 C   0  0  0  0  0  0  0  0  0  0  0  0
   -0.7500    1.2990    0.0000 C   0  0  0  0  0  0  0  0  0  0  0  0
   -1.5000    0.0000    0.0000 C   0  0  0  0  0  0  0  0  0  0  0  0
  1  2  2  0
  2  3  1  0
  3  4  1  0
  4  5  2  0
  5  6  1  0
  5  7  1  0
  7  8  1  0
  8  9  1  0
  9 10  1  0
  6  2  1  0
 10  4  1  0
M  END
>  <Compound_ID>  (89) 
C01743804

>  <Active>  (89) 
0

>  <Smiles>  (89) 
O=c1sc2c(s1)CCCC2

>  <canonical_smi>  (89) 
O=c1sc2c(s1)CCCC2

>  <Set>  (89) 
G2 inactive

>  <Set_type>  (89) 
Train

>  <MW>  (89) 
172.27

>  <HBD>  (89) 
0

>  <HBA>  (89) 
1

>  <NRB>  (89) 
0

>  <NR>  (89) 
2

>  <NAR>  (89) 
1

>  <PSA>  (89) 
17.07

>  <Standard Type>  (89) 
nan

>  <Standard Relation>  (89) 
nan

>  <Standard Units>  (89) 
nan

>  <Standard Value>  (89) 
nan

>  <Assay ChEMBL ID>  (89) 
nan

>  <Assay Description>  (89) 
nan

>  <BAO Label>  (89) 
nan

>  <bits>  (89) 
<rdkit.DataStructs.cDataStructs.ExplicitBitVect object at 0x000002AD6E9B6650>

>  <Group>  (89) 
G2

$$$$

     RDKit          2D

  9  9  0  0  0  0  0  0  0  0999 V2000
    5.0260   -1.2990    0.0000 C   0  0  0  0  0  0  0  0  0  0  0  0
    3.5260   -1.2990    0.0000 C   0  0  0  0  0  0  0  0  0  0  0  0
    2.7760    0.0000    0.0000 C   0  0  0  0  0  0  0  0  0  0  0  0
    1.2760    0.0000    0.0000 C   0  0  0  0  0  0  0  0  0  0  0  0
    0.3943    1.2135    0.0000 N   0  0  0  0  0  0  0  0  0  0  0  0
   -1.0323    0.7500    0.0000 C   0  0  0  0  0  0  0  0  0  0  0  0
   -2.2458    1.6317    0.0000 C   0  0  0  0  0  0  0  0  0  0  0  0
   -1.0323   -0.7500    0.0000 C   0  0  0  0  0  0  0  0  0  0  0  0
    0.3943   -1.2135    0.0000 S   0  0  0  0  0  0  0  0  0  0  0  0
  1  2  1  0
  2  3  1  0
  3  4  1  0
  4  5  2  0
  5  6  1  0
  6  7  1  6
  6  8  1  0
  8  9  1  0
  9  4  1  0
M  END
>  <Compound_ID>  (90) 
C05417592

>  <Active>  (90) 
0

>  <Smiles>  (90) 
CCCC1=N[C@@H](C)CS1

>  <canonical_smi>  (90) 
CCCC1=N[C@@H](C)CS1

>  <Set>  (90) 
G2 inactive

>  <Set_type>  (90) 
Train

>  <MW>  (90) 
143.25

>  <HBD>  (90) 
0

>  <HBA>  (90) 
1

>  <NRB>  (90) 
2

>  <NR>  (90) 
1

>  <NAR>  (90) 
0

>  <PSA>  (90) 
12.36

>  <Standard Type>  (90) 
nan

>  <Standard Relation>  (90) 
nan

>  <Standard Units>  (90) 
nan

>  <Standard Value>  (90) 
nan

>  <Assay ChEMBL ID>  (90) 
nan

>  <Assay Description>  (90) 
nan

>  <BAO Label>  (90) 
nan

>  <bits>  (90) 
<rdkit.DataStructs.cDataStructs.ExplicitBitVect object at 0x000002AD6E9B6F10>

>  <Group>  (90) 
G2

$$$$

     RDKit          2D

 11 11  0  0  0  0  0  0  0  0999 V2000
    2.7760    0.0000    0.0000 C   0  0  0  0  0  0  0  0  0  0  0  0
    1.2760    0.0000    0.0000 C   0  0  0  0  0  0  0  0  0  0  0  0
    0.3943    1.2135    0.0000 C   0  0  0  0  0  0  0  0  0  0  0  0
    0.8578    2.6401    0.0000 O   0  0  0  0  0  0  0  0  0  0  0  0
   -1.0323    0.7500    0.0000 O   0  0  0  0  0  0  0  0  0  0  0  0
   -1.0323   -0.7500    0.0000 C   0  0  0  0  0  0  0  0  0  0  0  0
   -1.3442   -2.2172    0.0000 C   0  0  0  0  0  0  0  0  0  0  0  0
   -2.5241   -0.5932    0.0000 C   0  0  0  0  0  0  0  0  0  0  0  0
    0.3943   -1.2135    0.0000 C   0  0  0  0  0  0  0  0  0  0  0  0
    1.6933   -1.9635    0.0000 C   0  0  0  0  0  0  0  0  0  0  0  0
   -0.2158   -2.5838    0.0000 C   0  0  0  0  0  0  0  0  0  0  0  0
  1  2  2  0
  2  3  1  0
  3  4  2  0
  3  5  1  0
  5  6  1  0
  6  7  1  0
  6  8  1  0
  6  9  1  0
  9 10  1  0
  9 11  1  0
  9  2  1  0
M  END
>  <Compound_ID>  (91) 
C01570260

>  <Active>  (91) 
0

>  <Smiles>  (91) 
C=C1C(=O)OC(C)(C)C1(C)C

>  <canonical_smi>  (91) 
C=C1C(=O)OC(C)(C)C1(C)C

>  <Set>  (91) 
G2 inactive

>  <Set_type>  (91) 
Train

>  <MW>  (91) 
154.21

>  <HBD>  (91) 
0

>  <HBA>  (91) 
2

>  <NRB>  (91) 
0

>  <NR>  (91) 
1

>  <NAR>  (91) 
0

>  <PSA>  (91) 
26.3

>  <Standard Type>  (91) 
nan

>  <Standard Relation>  (91) 
nan

>  <Standard Units>  (91) 
nan

>  <Standard Value>  (91) 
nan

>  <Assay ChEMBL ID>  (91) 
nan

>  <Assay Description>  (91) 
nan

>  <BAO Label>  (91) 
nan

>  <bits>  (91) 
<rdkit.DataStructs.cDataStructs.ExplicitBitVect object at 0x000002AD6E9B7290>

>  <Group>  (91) 
G2

$$$$

     RDKit          2D

 10 10  0  0  0  0  0  0  0  0999 V2000
    2.7760    0.0000    0.0000 C   0  0  0  0  0  0  0  0  0  0  0  0
    1.2760    0.0000    0.0000 C   0  0  0  0  0  0  0  0  0  0  0  0
    0.3943    1.2135    0.0000 C   0  0  0  0  0  0  0  0  0  0  0  0
   -1.0323    0.7500    0.0000 C   0  0  0  0  0  0  0  0  0  0  0  0
   -1.0323   -0.7500    0.0000 C   0  0  0  0  0  0  0  0  0  0  0  0
   -2.2458   -1.6317    0.0000 C   0  0  0  0  0  0  0  0  0  0  0  0
    0.3943   -1.2135    0.0000 N   0  0  0  0  0  0  0  0  0  0  0  0
    0.8578   -2.6401    0.0000 C   0  0  0  0  0  0  0  0  0  0  0  0
   -0.1459   -3.7548    0.0000 C   0  0  0  0  0  0  0  0  0  0  0  0
    2.3250   -2.9520    0.0000 C   0  0  0  0  0  0  0  0  0  0  0  0
  1  2  1  0
  2  3  2  0
  3  4  1  0
  4  5  2  0
  5  6  1  0
  5  7  1  0
  7  8  1  0
  8  9  1  0
  8 10  1  0
  7  2  1  0
M  END
>  <Compound_ID>  (92) 
C08729234

>  <Active>  (92) 
0

>  <Smiles>  (92) 
Cc1ccc(C)n1C(C)C

>  <canonical_smi>  (92) 
Cc1ccc(C)n1C(C)C

>  <Set>  (92) 
G2 inactive

>  <Set_type>  (92) 
Train

>  <MW>  (92) 
137.23

>  <HBD>  (92) 
0

>  <HBA>  (92) 
0

>  <NRB>  (92) 
1

>  <NR>  (92) 
1

>  <NAR>  (92) 
1

>  <PSA>  (92) 
4.93

>  <Standard Type>  (92) 
nan

>  <Standard Relation>  (92) 
nan

>  <Standard Units>  (92) 
nan

>  <Standard Value>  (92) 
nan

>  <Assay ChEMBL ID>  (92) 
nan

>  <Assay Description>  (92) 
nan

>  <BAO Label>  (92) 
nan

>  <bits>  (92) 
<rdkit.DataStructs.cDataStructs.ExplicitBitVect object at 0x000002AD6E9B7300>

>  <Group>  (92) 
G2

$$$$

     RDKit          2D

  8  7  0  0  0  0  0  0  0  0999 V2000
   -1.2990    0.7500    0.0000 F   0  0  0  0  0  0  0  0  0  0  0  0
    0.0000    0.0000    0.0000 C   0  0  0  0  0  0  0  0  0  0  0  0
   -0.0000   -1.5000    0.0000 F   0  0  0  0  0  0  0  0  0  0  0  0
    1.2990    0.7500    0.0000 O   0  0  0  0  0  0  0  0  0  0  0  0
    2.5981   -0.0000    0.0000 C   0  0  0  0  0  0  0  0  0  0  0  0
    3.8971   -0.7500    0.0000 F   0  0  0  0  0  0  0  0  0  0  0  0
    3.3481    1.2990    0.0000 F   0  0  0  0  0  0  0  0  0  0  0  0
    1.8481   -1.2990    0.0000 F   0  0  0  0  0  0  0  0  0  0  0  0
  1  2  1  0
  2  3  1  0
  2  4  1  0
  4  5  1  0
  5  6  1  0
  5  7  1  0
  5  8  1  0
M  END
>  <Compound_ID>  (93) 
C05178907

>  <Active>  (93) 
0

>  <Smiles>  (93) 
FC(F)OC(F)(F)F

>  <canonical_smi>  (93) 
FC(F)OC(F)(F)F

>  <Set>  (93) 
G2 inactive

>  <Set_type>  (93) 
Train

>  <MW>  (93) 
136.02

>  <HBD>  (93) 
0

>  <HBA>  (93) 
1

>  <NRB>  (93) 
1

>  <NR>  (93) 
0

>  <NAR>  (93) 
0

>  <PSA>  (93) 
9.23

>  <Standard Type>  (93) 
nan

>  <Standard Relation>  (93) 
nan

>  <Standard Units>  (93) 
nan

>  <Standard Value>  (93) 
nan

>  <Assay ChEMBL ID>  (93) 
nan

>  <Assay Description>  (93) 
nan

>  <BAO Label>  (93) 
nan

>  <bits>  (93) 
<rdkit.DataStructs.cDataStructs.ExplicitBitVect object at 0x000002AD6E9B73E0>

>  <Group>  (93) 
G2

$$$$

     RDKit          2D

 10 11  0  0  0  0  0  0  0  0999 V2000
    3.0000   -2.5981    0.0000 O   0  0  0  0  0  0  0  0  0  0  0  0
    1.5000   -2.5981    0.0000 C   0  0  0  0  0  0  0  0  0  0  0  0
    0.7500   -1.2990    0.0000 C   0  0  0  0  0  0  0  0  0  0  0  0
    1.5000    0.0000    0.0000 C   0  0  0  0  0  0  0  0  0  0  0  0
    0.7500    1.2990    0.0000 C   0  0  0  0  0  0  0  0  0  0  0  0
   -0.7500    1.2990    0.0000 C   0  0  0  0  0  0  0  0  0  0  0  0
   -1.5000    0.0000    0.0000 C   0  0  0  0  0  0  0  0  0  0  0  0
   -0.7500   -1.2990    0.0000 C   0  0  0  0  0  0  0  0  0  0  0  0
   -1.6638   -1.5527    0.0000 O   0  0  0  0  0  0  0  0  0  0  0  0
   -0.3647   -2.3027    0.0000 C   0  0  0  0  0  0  0  0  0  0  0  0
  1  2  2  0
  3  2  1  6
  3  4  1  0
  4  5  1  0
  5  6  1  0
  7  6  1  1
  7  8  1  0
  7  9  1  0
  9 10  1  0
  8  3  1  0
 10  3  1  0
M  END
>  <Compound_ID>  (94) 
C39060767

>  <Active>  (94) 
0

>  <Smiles>  (94) 
O=C[C@@]12CCC[C@@H](C1)OC2

>  <canonical_smi>  (94) 
O=C[C@@]12CCC[C@@H](C1)OC2

>  <Set>  (94) 
G2 inactive

>  <Set_type>  (94) 
Train

>  <MW>  (94) 
140.18

>  <HBD>  (94) 
0

>  <HBA>  (94) 
2

>  <NRB>  (94) 
1

>  <NR>  (94) 
2

>  <NAR>  (94) 
0

>  <PSA>  (94) 
26.3

>  <Standard Type>  (94) 
nan

>  <Standard Relation>  (94) 
nan

>  <Standard Units>  (94) 
nan

>  <Standard Value>  (94) 
nan

>  <Assay ChEMBL ID>  (94) 
nan

>  <Assay Description>  (94) 
nan

>  <BAO Label>  (94) 
nan

>  <bits>  (94) 
<rdkit.DataStructs.cDataStructs.ExplicitBitVect object at 0x000002AD6E9B74C0>

>  <Group>  (94) 
G2

$$$$

     RDKit          2D

 10  9  0  0  0  0  0  0  0  0999 V2000
   -2.2500   -3.8971    0.0000 C   0  0  0  0  0  0  0  0  0  0  0  0
   -1.5000   -2.5981    0.0000 C   0  0  0  0  0  0  0  0  0  0  0  0
   -0.7500   -1.2990    0.0000 C   0  0  0  0  0  0  0  0  0  0  0  0
    0.0000    0.0000    0.0000 C   0  0  0  0  0  0  0  0  0  0  0  0
   -0.7500    1.2990    0.0000 C   0  0  0  0  0  0  0  0  0  0  0  0
    1.5000    0.0000    0.0000 C   0  0  0  0  0  0  0  0  0  0  0  0
    2.2500   -1.2990    0.0000 C   0  0  0  0  0  0  0  0  0  0  0  0
    3.7500   -1.2990    0.0000 C   0  0  0  0  0  0  0  0  0  0  0  0
    4.5000   -2.5981    0.0000 C   0  0  0  0  0  0  0  0  0  0  0  0
    4.5000    0.0000    0.0000 O   0  0  0  0  0  0  0  0  0  0  0  0
  1  2  1  0
  2  3  3  0
  3  4  1  0
  4  5  1  0
  4  6  2  0
  6  7  1  0
  7  8  1  0
  8  9  1  0
  8 10  2  0
M  END
>  <Compound_ID>  (95) 
C39068734

>  <Active>  (95) 
0

>  <Smiles>  (95) 
CC#C/C(C)=C\CC(C)=O

>  <canonical_smi>  (95) 
CC#C/C(C)=C\CC(C)=O

>  <Set>  (95) 
G2 inactive

>  <Set_type>  (95) 
Train

>  <MW>  (95) 
136.19

>  <HBD>  (95) 
0

>  <HBA>  (95) 
1

>  <NRB>  (95) 
2

>  <NR>  (95) 
0

>  <NAR>  (95) 
0

>  <PSA>  (95) 
17.07

>  <Standard Type>  (95) 
nan

>  <Standard Relation>  (95) 
nan

>  <Standard Units>  (95) 
nan

>  <Standard Value>  (95) 
nan

>  <Assay ChEMBL ID>  (95) 
nan

>  <Assay Description>  (95) 
nan

>  <BAO Label>  (95) 
nan

>  <bits>  (95) 
<rdkit.DataStructs.cDataStructs.ExplicitBitVect object at 0x000002AD6E9B5070>

>  <Group>  (95) 
G2

$$$$

     RDKit          2D

  9  9  0  0  0  0  0  0  0  0999 V2000
    3.9786   -1.2990    0.0000 O   0  0  0  0  0  0  0  0  0  0  0  0
    3.2286   -0.0000    0.0000 C   0  0  0  0  0  0  0  0  0  0  0  0
    1.7286    0.0000    0.0000 N   0  0  0  0  0  0  0  0  0  0  0  0
    1.0777    1.3515    0.0000 C   0  0  0  0  0  0  0  0  0  0  0  0
   -0.3846    1.6852    0.0000 C   0  0  0  0  0  0  0  0  0  0  0  0
   -1.5574    0.7500    0.0000 C   0  0  0  0  0  0  0  0  0  0  0  0
   -1.5574   -0.7500    0.0000 C   0  0  0  0  0  0  0  0  0  0  0  0
   -0.3846   -1.6852    0.0000 C   0  0  0  0  0  0  0  0  0  0  0  0
    1.0777   -1.3515    0.0000 C   0  0  0  0  0  0  0  0  0  0  0  0
  1  2  2  0
  2  3  1  0
  3  4  1  0
  4  5  1  0
  5  6  2  0
  6  7  1  0
  7  8  1  0
  8  9  1  0
  9  3  1  0
M  END
>  <Compound_ID>  (96) 
C39073821

>  <Active>  (96) 
0

>  <Smiles>  (96) 
O=CN1CC=CCCC1

>  <canonical_smi>  (96) 
O=CN1CC=CCCC1

>  <Set>  (96) 
G2 inactive

>  <Set_type>  (96) 
Train

>  <MW>  (96) 
125.17

>  <HBD>  (96) 
0

>  <HBA>  (96) 
1

>  <NRB>  (96) 
1

>  <NR>  (96) 
1

>  <NAR>  (96) 
0

>  <PSA>  (96) 
20.31

>  <Standard Type>  (96) 
nan

>  <Standard Relation>  (96) 
nan

>  <Standard Units>  (96) 
nan

>  <Standard Value>  (96) 
nan

>  <Assay ChEMBL ID>  (96) 
nan

>  <Assay Description>  (96) 
nan

>  <BAO Label>  (96) 
nan

>  <bits>  (96) 
<rdkit.DataStructs.cDataStructs.ExplicitBitVect object at 0x000002AD6E9B5230>

>  <Group>  (96) 
G2

$$$$

     RDKit          2D

  9 10  0  0  0  0  0  0  0  0999 V2000
   -5.6292   -0.7500    0.0000 F   0  0  0  0  0  0  0  0  0  0  0  0
   -4.3301   -1.5000    0.0000 C   0  0  0  0  0  0  0  0  0  0  0  0
   -3.0311   -0.7500    0.0000 C   0  0  0  0  0  0  0  0  0  0  0  0
   -3.0311    0.7500    0.0000 C   0  0  0  0  0  0  0  0  0  0  0  0
   -1.7321    1.5000    0.0000 C   0  0  0  0  0  0  0  0  0  0  0  0
   -0.4330    0.7500    0.0000 C   0  0  0  0  0  0  0  0  0  0  0  0
    0.8660    0.0000    0.0000 O   0  0  0  0  0  0  0  0  0  0  0  0
   -0.4330   -0.7500    0.0000 C   0  0  0  0  0  0  0  0  0  0  0  0
   -1.7321   -1.5000    0.0000 C   0  0  0  0  0  0  0  0  0  0  0  0
  1  2  1  0
  3  2  1  6
  3  4  1  0
  4  5  1  0
  6  5  1  6
  6  7  1  0
  7  8  1  0
  8  9  1  6
  9  3  1  0
  8  6  1  0
M  END
>  <Compound_ID>  (97) 
C39131878

>  <Active>  (97) 
0

>  <Smiles>  (97) 
FC[C@@H]1CC[C@@H]2O[C@@H]2C1

>  <canonical_smi>  (97) 
FC[C@@H]1CC[C@@H]2O[C@@H]2C1

>  <Set>  (97) 
G2 inactive

>  <Set_type>  (97) 
Train

>  <MW>  (97) 
130.16

>  <HBD>  (97) 
0

>  <HBA>  (97) 
1

>  <NRB>  (97) 
1

>  <NR>  (97) 
2

>  <NAR>  (97) 
0

>  <PSA>  (97) 
12.53

>  <Standard Type>  (97) 
nan

>  <Standard Relation>  (97) 
nan

>  <Standard Units>  (97) 
nan

>  <Standard Value>  (97) 
nan

>  <Assay ChEMBL ID>  (97) 
nan

>  <Assay Description>  (97) 
nan

>  <BAO Label>  (97) 
nan

>  <bits>  (97) 
<rdkit.DataStructs.cDataStructs.ExplicitBitVect object at 0x000002AD6E9B59A0>

>  <Group>  (97) 
G2

$$$$

     RDKit          2D

 12 14  0  0  0  0  0  0  0  0999 V2000
    1.5000    0.0000    0.0000 C   0  0  0  0  0  0  0  0  0  0  0  0
    0.7500   -1.2990    0.0000 C   0  0  0  0  0  0  0  0  0  0  0  0
   -0.7500   -1.2990    0.0000 C   0  0  0  0  0  0  0  0  0  0  0  0
   -1.7537   -2.4138    0.0000 C   0  0  0  0  0  0  0  0  0  0  0  0
   -1.9105   -3.9055    0.0000 N   0  0  0  0  0  0  0  0  0  0  0  0
   -3.3777   -4.2174    0.0000 C   0  0  0  0  0  0  0  0  0  0  0  0
   -4.1277   -2.9184    0.0000 C   0  0  0  0  0  0  0  0  0  0  0  0
   -3.1240   -1.8037    0.0000 C   0  0  0  0  0  0  0  0  0  0  0  0
   -2.9672   -0.3119    0.0000 O   0  0  0  0  0  0  0  0  0  0  0  0
   -1.5000    0.0000    0.0000 C   0  0  0  0  0  0  0  0  0  0  0  0
   -0.7500    1.2990    0.0000 C   0  0  0  0  0  0  0  0  0  0  0  0
    0.7500    1.2990    0.0000 C   0  0  0  0  0  0  0  0  0  0  0  0
  1  2  2  0
  2  3  1  0
  3  4  2  0
  4  5  1  0
  5  6  2  0
  6  7  1  0
  7  8  2  0
  8  9  1  0
 10  9  1  6
 10 11  1  0
 11 12  2  0
 12  1  1  0
 10  3  1  0
  8  4  1  0
M  END
>  <Compound_ID>  (98) 
C39136454

>  <Active>  (98) 
0

>  <Smiles>  (98) 
C1=CC2=C3N=CC=C3O[C@@H]2C=C1

>  <canonical_smi>  (98) 
C1=CC2=C3N=CC=C3O[C@@H]2C=C1

>  <Set>  (98) 
G2 inactive

>  <Set_type>  (98) 
Train

>  <MW>  (98) 
157.17

>  <HBD>  (98) 
0

>  <HBA>  (98) 
1

>  <NRB>  (98) 
0

>  <NR>  (98) 
3

>  <NAR>  (98) 
0

>  <PSA>  (98) 
21.59

>  <Standard Type>  (98) 
nan

>  <Standard Relation>  (98) 
nan

>  <Standard Units>  (98) 
nan

>  <Standard Value>  (98) 
nan

>  <Assay ChEMBL ID>  (98) 
nan

>  <Assay Description>  (98) 
nan

>  <BAO Label>  (98) 
nan

>  <bits>  (98) 
<rdkit.DataStructs.cDataStructs.ExplicitBitVect object at 0x000002AD6E9B75A0>

>  <Group>  (98) 
G2

$$$$

     RDKit          2D

  9  9  0  0  0  0  0  0  0  0999 V2000
    2.7760   -1.5000    0.0000 C   0  0  0  0  0  0  0  0  0  0  0  0
    2.7760    0.0000    0.0000 C   0  0  0  0  0  0  0  0  0  0  0  0
    2.7760    1.5000    0.0000 C   0  0  0  0  0  0  0  0  0  0  0  0
    4.2760    0.0000    0.0000 C   0  0  0  0  0  0  0  0  0  0  0  0
    1.2760    0.0000    0.0000 C   0  0  0  0  0  0  0  0  0  0  0  0
    0.3943    1.2135    0.0000 N   0  0  0  0  0  0  0  0  0  0  0  0
   -1.0323    0.7500    0.0000 N   0  0  0  0  0  0  0  0  0  0  0  0
   -1.0323   -0.7500    0.0000 C   0  0  0  0  0  0  0  0  0  0  0  0
    0.3943   -1.2135    0.0000 C   0  0  0  0  0  0  0  0  0  0  0  0
  1  2  1  0
  2  3  1  0
  2  4  1  0
  2  5  1  0
  5  6  2  0
  6  7  1  0
  7  8  2  0
  8  9  1  0
  9  5  1  0
M  END
>  <Compound_ID>  (99) 
C39945543

>  <Active>  (99) 
0

>  <Smiles>  (99) 
CC(C)(C)C1=NN=CC1

>  <canonical_smi>  (99) 
CC(C)(C)C1=NN=CC1

>  <Set>  (99) 
G2 inactive

>  <Set_type>  (99) 
Train

>  <MW>  (99) 
124.19

>  <HBD>  (99) 
0

>  <HBA>  (99) 
0

>  <NRB>  (99) 
0

>  <NR>  (99) 
1

>  <NAR>  (99) 
0

>  <PSA>  (99) 
24.72

>  <Standard Type>  (99) 
nan

>  <Standard Relation>  (99) 
nan

>  <Standard Units>  (99) 
nan

>  <Standard Value>  (99) 
nan

>  <Assay ChEMBL ID>  (99) 
nan

>  <Assay Description>  (99) 
nan

>  <BAO Label>  (99) 
nan

>  <bits>  (99) 
<rdkit.DataStructs.cDataStructs.ExplicitBitVect object at 0x000002AD6E9B49E0>

>  <Group>  (99) 
G2

$$$$

     RDKit          2D

  9  9  0  0  0  0  0  0  0  0999 V2000
    3.7981    1.9284    0.0000 N   0  0  0  0  0  0  0  0  0  0  0  0
    2.6491    0.9642    0.0000 C   0  0  0  0  0  0  0  0  0  0  0  0
    1.5000    0.0000    0.0000 C   0  0  0  0  0  0  0  0  0  0  0  0
    2.6491   -0.9642    0.0000 Cl  0  0  0  0  0  0  0  0  0  0  0  0
    0.7500   -1.2990    0.0000 C   0  0  0  0  0  0  0  0  0  0  0  0
   -0.7500   -1.2990    0.0000 C   0  0  0  0  0  0  0  0  0  0  0  0
   -1.5000    0.0000    0.0000 S   0  0  0  0  0  0  0  0  0  0  0  0
   -0.7500    1.2990    0.0000 C   0  0  0  0  0  0  0  0  0  0  0  0
    0.7500    1.2990    0.0000 C   0  0  0  0  0  0  0  0  0  0  0  0
  1  2  3  0
  2  3  1  0
  3  4  1  0
  3  5  1  0
  5  6  1  0
  6  7  1  0
  7  8  1  0
  8  9  1  0
  9  3  1  0
M  END
>  <Compound_ID>  (100) 
C45626964

>  <Active>  (100) 
0

>  <Smiles>  (100) 
N#CC1(Cl)CCSCC1

>  <canonical_smi>  (100) 
N#CC1(Cl)CCSCC1

>  <Set>  (100) 
G2 inactive

>  <Set_type>  (100) 
Train

>  <MW>  (100) 
161.66

>  <HBD>  (100) 
0

>  <HBA>  (100) 
2

>  <NRB>  (100) 
0

>  <NR>  (100) 
1

>  <NAR>  (100) 
0

>  <PSA>  (100) 
23.79

>  <Standard Type>  (100) 
nan

>  <Standard Relation>  (100) 
nan

>  <Standard Units>  (100) 
nan

>  <Standard Value>  (100) 
nan

>  <Assay ChEMBL ID>  (100) 
nan

>  <Assay Description>  (100) 
nan

>  <BAO Label>  (100) 
nan

>  <bits>  (100) 
<rdkit.DataStructs.cDataStructs.ExplicitBitVect object at 0x000002AD6E9B4B30>

>  <Group>  (100) 
G2

$$$$

     RDKit          2D

 10 11  0  0  0  0  0  0  0  0999 V2000
    2.1328    3.1443    0.0000 Cl  0  0  0  0  0  0  0  0  0  0  0  0
    0.7062    2.6807    0.0000 C   0  0  0  0  0  0  0  0  0  0  0  0
   -0.4086    3.6844    0.0000 N   0  0  0  0  0  0  0  0  0  0  0  0
   -1.8351    3.2209    0.0000 C   0  0  0  0  0  0  0  0  0  0  0  0
   -2.1470    1.7537    0.0000 N   0  0  0  0  0  0  0  0  0  0  0  0
   -1.0323    0.7500    0.0000 C   0  0  0  0  0  0  0  0  0  0  0  0
    0.3943    1.2135    0.0000 C   0  0  0  0  0  0  0  0  0  0  0  0
    1.2760    0.0000    0.0000 C   0  0  0  0  0  0  0  0  0  0  0  0
    0.3943   -1.2135    0.0000 S   0  0  0  0  0  0  0  0  0  0  0  0
   -1.0323   -0.7500    0.0000 C   0  0  0  0  0  0  0  0  0  0  0  0
  1  2  1  0
  2  3  2  0
  3  4  1  0
  4  5  2  0
  5  6  1  0
  6  7  2  0
  7  8  1  0
  8  9  1  0
  9 10  1  0
  7  2  1  0
 10  6  1  0
M  END
>  <Compound_ID>  (101) 
C35269988

>  <Active>  (101) 
0

>  <Smiles>  (101) 
Clc1ncnc2c1CSC2

>  <canonical_smi>  (101) 
Clc1ncnc2c1CSC2

>  <Set>  (101) 
G2 inactive

>  <Set_type>  (101) 
Train

>  <MW>  (101) 
172.64

>  <HBD>  (101) 
0

>  <HBA>  (101) 
3

>  <NRB>  (101) 
0

>  <NR>  (101) 
2

>  <NAR>  (101) 
1

>  <PSA>  (101) 
25.78

>  <Standard Type>  (101) 
nan

>  <Standard Relation>  (101) 
nan

>  <Standard Units>  (101) 
nan

>  <Standard Value>  (101) 
nan

>  <Assay ChEMBL ID>  (101) 
nan

>  <Assay Description>  (101) 
nan

>  <BAO Label>  (101) 
nan

>  <bits>  (101) 
<rdkit.DataStructs.cDataStructs.ExplicitBitVect object at 0x000002AD6E9B4BA0>

>  <Group>  (101) 
G2

$$$$

     RDKit          2D

 17 18  0  0  0  0  0  0  0  0999 V2000
    6.7500   -1.2990    0.0000 C   0  0  0  0  0  0  0  0  0  0  0  0
    5.2500   -1.2990    0.0000 C   0  0  0  0  0  0  0  0  0  0  0  0
    3.7500   -1.2990    0.0000 C   0  0  0  0  0  0  0  0  0  0  0  0
    3.0000    0.0000    0.0000 S   0  0  0  0  0  0  0  0  0  0  0  0
    1.5000    0.0000    0.0000 C   0  0  0  0  0  0  0  0  0  0  0  0
    0.7500   -1.2990    0.0000 N   0  0  0  0  0  0  0  0  0  0  0  0
   -0.7500   -1.2990    0.0000 S   0  0  0  0  0  0  0  0  0  0  0  0
   -0.4895   -2.7762    0.0000 O   0  0  0  0  0  0  0  0  0  0  0  0
   -2.1595   -1.8121    0.0000 O   0  0  0  0  0  0  0  0  0  0  0  0
   -1.5000    0.0000    0.0000 C   0  0  0  0  0  0  0  0  0  0  0  0
   -2.9672    0.3119    0.0000 C   0  0  0  0  0  0  0  0  0  0  0  0
   -4.0819   -0.6918    0.0000 C   0  0  0  0  0  0  0  0  0  0  0  0
   -3.1240    1.8037    0.0000 N   0  0  0  0  0  0  0  0  0  0  0  0
   -1.7537    2.4138    0.0000 N   0  0  0  0  0  0  0  0  0  0  0  0
   -1.4418    3.8810    0.0000 C   0  0  0  0  0  0  0  0  0  0  0  0
   -0.7500    1.2990    0.0000 C   0  0  0  0  0  0  0  0  0  0  0  0
    0.7500    1.2990    0.0000 S   0  0  0  0  0  0  0  0  0  0  0  0
  1  2  3  0
  2  3  1  0
  3  4  1  0
  4  5  1  0
  5  6  2  0
  6  7  1  0
  7  8  2  0
  7  9  2  0
  7 10  1  0
 10 11  1  0
 11 12  1  0
 11 13  2  0
 13 14  1  0
 14 15  1  0
 14 16  1  0
 16 17  1  0
 17  5  1  0
 16 10  2  0
M  END
>  <Compound_ID>  (102) 
C04323363

>  <Active>  (102) 
0

>  <Smiles>  (102) 
C#CCSC1=NS(=O)(=O)c2c(C)nn(C)c2S1

>  <canonical_smi>  (102) 
C#CCSC1=NS(=O)(=O)c2c(C)nn(C)c2S1

>  <Set>  (102) 
G2 inactive

>  <Set_type>  (102) 
Train

>  <MW>  (102) 
287.39

>  <HBD>  (102) 
0

>  <HBA>  (102) 
5

>  <NRB>  (102) 
1

>  <NR>  (102) 
2

>  <NAR>  (102) 
1

>  <PSA>  (102) 
64.32

>  <Standard Type>  (102) 
nan

>  <Standard Relation>  (102) 
nan

>  <Standard Units>  (102) 
nan

>  <Standard Value>  (102) 
nan

>  <Assay ChEMBL ID>  (102) 
nan

>  <Assay Description>  (102) 
nan

>  <BAO Label>  (102) 
nan

>  <bits>  (102) 
<rdkit.DataStructs.cDataStructs.ExplicitBitVect object at 0x000002AD6E9B4D60>

>  <Group>  (102) 
G2

$$$$

     RDKit          2D

 19 20  0  0  0  0  0  0  0  0999 V2000
    3.7500   -1.2990    0.0000 C   0  0  0  0  0  0  0  0  0  0  0  0
    3.0000    0.0000    0.0000 C   0  0  0  0  0  0  0  0  0  0  0  0
    1.5000    0.0000    0.0000 N   0  0  0  0  0  0  0  0  0  0  0  0
    0.7500   -1.2990    0.0000 C   0  0  0  0  0  0  0  0  0  0  0  0
   -0.7500   -1.2990    0.0000 C   0  0  0  0  0  0  0  0  0  0  0  0
   -1.5000    0.0000    0.0000 N   0  0  0  0  0  0  0  0  0  0  0  0
   -3.0000    0.0000    0.0000 C   0  0  0  0  0  0  0  0  0  0  0  0
   -3.7500    1.2990    0.0000 C   0  0  0  0  0  0  0  0  0  0  0  0
   -5.2500    1.2990    0.0000 C   0  0  0  0  0  0  0  0  0  0  0  0
   -6.0000    2.5981    0.0000 C   0  0  0  0  0  0  0  0  0  0  0  0
   -6.0000    0.0000    0.0000 C   0  0  0  0  0  0  0  0  0  0  0  0
   -5.2500   -1.2990    0.0000 C   0  0  0  0  0  0  0  0  0  0  0  0
   -3.7500   -1.2990    0.0000 C   0  0  0  0  0  0  0  0  0  0  0  0
   -3.0000   -2.5981    0.0000 C   0  0  0  0  0  0  0  0  0  0  0  0
   -2.2500   -3.8971    0.0000 N   0  0  0  0  0  0  0  0  0  0  0  0
   -0.7500    1.2990    0.0000 C   0  0  0  0  0  0  0  0  0  0  0  0
   -1.5000    2.5981    0.0000 O   0  0  0  0  0  0  0  0  0  0  0  0
    0.7500    1.2990    0.0000 C   0  0  0  0  0  0  0  0  0  0  0  0
    1.5000    2.5981    0.0000 O   0  0  0  0  0  0  0  0  0  0  0  0
  1  2  1  0
  2  3  1  0
  3  4  1  0
  4  5  1  0
  5  6  1  0
  7  6  1  1
  7  8  1  0
  8  9  1  0
  9 10  1  1
  9 11  1  0
 11 12  1  0
 12 13  1  0
 13 14  1  1
 14 15  3  0
  6 16  1  0
 16 17  2  0
 16 18  1  0
 18 19  2  0
 18  3  1  0
 13  7  1  0
M  END
>  <Compound_ID>  (103) 
C37147518

>  <Active>  (103) 
0

>  <Smiles>  (103) 
CCN1CCN([C@@H]2C[C@H](C)CC[C@@H]2C#N)C(=O)C1=O

>  <canonical_smi>  (103) 
CCN1CCN([C@@H]2C[C@H](C)CC[C@@H]2C#N)C(=O)C1=O

>  <Set>  (103) 
G2 inactive

>  <Set_type>  (103) 
Train

>  <MW>  (103) 
263.34

>  <HBD>  (103) 
0

>  <HBA>  (103) 
3

>  <NRB>  (103) 
2

>  <NR>  (103) 
2

>  <NAR>  (103) 
0

>  <PSA>  (103) 
64.41

>  <Standard Type>  (103) 
nan

>  <Standard Relation>  (103) 
nan

>  <Standard Units>  (103) 
nan

>  <Standard Value>  (103) 
nan

>  <Assay ChEMBL ID>  (103) 
nan

>  <Assay Description>  (103) 
nan

>  <BAO Label>  (103) 
nan

>  <bits>  (103) 
<rdkit.DataStructs.cDataStructs.ExplicitBitVect object at 0x000002AD6E9B5930>

>  <Group>  (103) 
G2

$$$$

     RDKit          2D

 17 18  0  0  0  0  0  0  0  0999 V2000
    3.0000   -2.5981    0.0000 O   0  0  0  0  0  0  0  0  0  0  0  0
    1.5000   -2.5981    0.0000 C   0  0  0  0  0  0  0  0  0  0  0  0
    0.7500   -3.8971    0.0000 C   0  0  0  0  0  0  0  0  0  0  0  0
    1.5000   -5.1962    0.0000 S   0  0  0  0  0  0  0  0  0  0  0  0
    0.7500   -6.4952    0.0000 C   0  0  0  0  0  0  0  0  0  0  0  0
    1.3601   -7.8655    0.0000 C   0  0  0  0  0  0  0  0  0  0  0  0
    0.2454   -8.8692    0.0000 C   0  0  0  0  0  0  0  0  0  0  0  0
   -1.0537   -8.1192    0.0000 S   0  0  0  0  0  0  0  0  0  0  0  0
   -1.6638   -9.4895    0.0000 O   0  0  0  0  0  0  0  0  0  0  0  0
   -2.4802   -7.6557    0.0000 O   0  0  0  0  0  0  0  0  0  0  0  0
   -0.7418   -6.6520    0.0000 C   0  0  0  0  0  0  0  0  0  0  0  0
    0.7500   -1.2990    0.0000 N   0  0  0  0  0  0  0  0  0  0  0  0
    1.5000    0.0000    0.0000 C   0  0  0  0  0  0  0  0  0  0  0  0
    0.7500    1.2990    0.0000 C   0  0  0  0  0  0  0  0  0  0  0  0
   -0.7500    1.2990    0.0000 S   0  0  0  0  0  0  0  0  0  0  0  0
   -1.5000    0.0000    0.0000 C   0  0  0  0  0  0  0  0  0  0  0  0
   -0.7500   -1.2990    0.0000 C   0  0  0  0  0  0  0  0  0  0  0  0
  1  2  2  0
  2  3  1  0
  3  4  1  0
  5  4  1  1
  5  6  1  0
  6  7  1  0
  7  8  1  0
  8  9  2  0
  8 10  2  0
  8 11  1  0
  2 12  1  0
 12 13  1  0
 13 14  1  0
 14 15  1  0
 15 16  1  0
 16 17  1  0
 11  5  1  0
 17 12  1  0
M  END
>  <Compound_ID>  (104) 
C49208850

>  <Active>  (104) 
0

>  <Smiles>  (104) 
O=C(CS[C@H]1CCS(=O)(=O)C1)N1CCSCC1

>  <canonical_smi>  (104) 
O=C(CS[C@H]1CCS(=O)(=O)C1)N1CCSCC1

>  <Set>  (104) 
G2 inactive

>  <Set_type>  (104) 
Train

>  <MW>  (104) 
295.45

>  <HBD>  (104) 
0

>  <HBA>  (104) 
5

>  <NRB>  (104) 
3

>  <NR>  (104) 
2

>  <NAR>  (104) 
0

>  <PSA>  (104) 
54.45

>  <Standard Type>  (104) 
nan

>  <Standard Relation>  (104) 
nan

>  <Standard Units>  (104) 
nan

>  <Standard Value>  (104) 
nan

>  <Assay ChEMBL ID>  (104) 
nan

>  <Assay Description>  (104) 
nan

>  <BAO Label>  (104) 
nan

>  <bits>  (104) 
<rdkit.DataStructs.cDataStructs.ExplicitBitVect object at 0x000002AD6E9B5C40>

>  <Group>  (104) 
G2

$$$$

     RDKit          2D

 19 22  0  0  0  0  0  0  0  0999 V2000
    2.3240    3.5018    0.0000 O   0  0  0  0  0  0  0  0  0  0  0  0
    0.8282    3.6139    0.0000 C   0  0  0  0  0  0  0  0  0  0  0  0
    0.1774    4.9653    0.0000 C   0  0  0  0  0  0  0  0  0  0  0  0
    1.0224    6.2047    0.0000 N   0  0  0  0  0  0  0  0  0  0  0  0
    0.5164    7.6168    0.0000 C   0  0  0  0  0  0  0  0  0  0  0  0
    1.7030    8.5343    0.0000 N   0  0  0  0  0  0  0  0  0  0  0  0
    2.9424    7.6894    0.0000 C   0  0  0  0  0  0  0  0  0  0  0  0
    2.5217    6.2496    0.0000 N   0  0  0  0  0  0  0  0  0  0  0  0
   -0.4113    1.7963    0.0000 N   0  0  0  0  0  0  0  0  0  0  0  0
    0.3391    0.4970    0.0000 C   0  0  0  0  0  0  0  0  0  0  0  0
    0.7500   -1.2990    0.0000 C   0  0  0  0  0  0  0  0  0  0  0  0
    1.5000    0.0000    0.0000 C   0  0  0  0  0  0  0  0  0  0  0  0
    0.7500    1.2990    0.0000 C   0  0  0  0  0  0  0  0  0  0  0  0
   -0.0000    2.5981    0.0000 C   0  0  0  0  0  0  0  0  0  0  0  0
   -1.5000    2.5981    0.0000 C   0  0  0  0  0  0  0  0  0  0  0  0
   -2.2500    1.2990    0.0000 C   0  0  0  0  0  0  0  0  0  0  0  0
   -1.5000    0.0000    0.0000 C   0  0  0  0  0  0  0  0  0  0  0  0
   -0.7500   -1.2990    0.0000 C   0  0  0  0  0  0  0  0  0  0  0  0
   -0.7500    1.2990    0.0000 C   0  0  0  0  0  0  0  0  0  0  0  0
  1  2  2  0
  2  3  1  0
  3  4  1  0
  4  5  1  0
  5  6  2  0
  6  7  1  0
  7  8  2  0
  2  9  1  0
  9 10  1  0
 10 11  1  0
 11 12  1  0
 13 12  1  1
 13 14  1  0
 14 15  1  0
 15 16  1  0
 17 16  1  1
 17 18  1  0
 17 19  1  0
  8  4  1  0
 15  9  1  0
 18 11  1  0
 19 13  1  0
M  END
>  <Compound_ID>  (105) 
C65814510

>  <Active>  (105) 
0

>  <Smiles>  (105) 
O=C(Cn1cncn1)N1CC2C[C@@H]3CC1C[C@H](C2)C3

>  <canonical_smi>  (105) 
O=C(Cn1cncn1)N1CC2C[C@H]3CC1C[C@@H](C2)C3

>  <Set>  (105) 
G2 inactive

>  <Set_type>  (105) 
Train

>  <MW>  (105) 
260.34

>  <HBD>  (105) 
0

>  <HBA>  (105) 
3

>  <NRB>  (105) 
2

>  <NR>  (105) 
5

>  <NAR>  (105) 
1

>  <PSA>  (105) 
51.02

>  <Standard Type>  (105) 
nan

>  <Standard Relation>  (105) 
nan

>  <Standard Units>  (105) 
nan

>  <Standard Value>  (105) 
nan

>  <Assay ChEMBL ID>  (105) 
nan

>  <Assay Description>  (105) 
nan

>  <BAO Label>  (105) 
nan

>  <bits>  (105) 
<rdkit.DataStructs.cDataStructs.ExplicitBitVect object at 0x000002AD6E9B5E00>

>  <Group>  (105) 
G2

$$$$

     RDKit          2D

 17 17  0  0  0  0  0  0  0  0999 V2000
    2.7760    5.1962    0.0000 C   0  0  0  0  0  0  0  0  0  0  0  0
    3.5260    3.8971    0.0000 C   0  0  0  0  0  0  0  0  0  0  0  0
    2.7760    2.5981    0.0000 C   0  0  0  0  0  0  0  0  0  0  0  0
    1.2760    2.5981    0.0000 N   0  0  0  0  0  4  0  0  0  0  0  0
    3.5260    1.2990    0.0000 C   0  0  0  0  0  0  0  0  0  0  0  0
    2.7760    0.0000    0.0000 N   0  0  0  0  0  4  0  0  0  0  0  0
    3.5260   -1.2990    0.0000 C   0  0  0  0  0  0  0  0  0  0  0  0
    5.0260   -1.2990    0.0000 C   0  0  0  0  0  0  0  0  0  0  0  0
    1.2760    0.0000    0.0000 C   0  0  0  0  0  0  0  0  0  0  0  0
    0.3943    1.2135    0.0000 C   0  0  0  0  0  0  0  0  0  0  0  0
   -1.0323    0.7500    0.0000 C   0  0  0  0  0  0  0  0  0  0  0  0
   -1.0323   -0.7500    0.0000 C   0  0  0  0  0  0  0  0  0  0  0  0
    0.3943   -1.2135    0.0000 C   0  0  0  0  0  0  0  0  0  0  0  0
    5.0260    1.2990    0.0000 C   0  0  0  0  0  0  0  0  0  0  0  0
    5.0260    2.7990    0.0000 C   0  0  0  0  0  0  0  0  0  0  0  0
    5.0260   -0.2010    0.0000 C   0  0  0  0  0  0  0  0  0  0  0  0
    6.5260    1.2990    0.0000 C   0  0  0  0  0  0  0  0  0  0  0  0
  1  2  1  0
  2  3  1  0
  3  4  1  1
  3  5  1  0
  5  6  1  6
  6  7  1  0
  7  8  1  0
  6  9  1  0
  9 10  1  0
 10 11  1  0
 11 12  1  0
 12 13  1  0
  5 14  1  0
 14 15  1  0
 14 16  1  0
 14 17  1  0
 13  9  1  0
M  CHG  2   4   1   6   1
M  END
>  <Compound_ID>  (106) 
C43292378

>  <Active>  (106) 
0

>  <Smiles>  (106) 
CC[C@H]([NH3+])[C@@H]([NH+](CC)C1CCCC1)C(C)(C)C

>  <canonical_smi>  (106) 
CC[C@H]([NH3+])[C@@H]([NH+](CC)C1CCCC1)C(C)(C)C

>  <Set>  (106) 
G2 inactive

>  <Set_type>  (106) 
Train

>  <MW>  (106) 
242.45

>  <HBD>  (106) 
2

>  <HBA>  (106) 
0

>  <NRB>  (106) 
5

>  <NR>  (106) 
1

>  <NAR>  (106) 
0

>  <PSA>  (106) 
32.08

>  <Standard Type>  (106) 
nan

>  <Standard Relation>  (106) 
nan

>  <Standard Units>  (106) 
nan

>  <Standard Value>  (106) 
nan

>  <Assay ChEMBL ID>  (106) 
nan

>  <Assay Description>  (106) 
nan

>  <BAO Label>  (106) 
nan

>  <bits>  (106) 
<rdkit.DataStructs.cDataStructs.ExplicitBitVect object at 0x000002AD6E9B5EE0>

>  <Group>  (106) 
G2

$$$$

     RDKit          2D

 22 23  0  0  0  0  0  0  0  0999 V2000
    3.0000    0.0000    0.0000 N   0  0  0  0  0  0  0  0  0  0  0  0
    1.5000    0.0000    0.0000 C   0  0  0  0  0  0  0  0  0  0  0  0
    0.7500   -1.2990    0.0000 C   0  0  0  0  0  0  0  0  0  0  0  0
   -0.7500   -1.2990    0.0000 C   0  0  0  0  0  0  0  0  0  0  0  0
   -1.5000   -2.5981    0.0000 N   0  0  0  0  0  0  0  0  0  0  0  0
   -1.5000    0.0000    0.0000 N   0  0  0  0  0  0  0  0  0  0  0  0
   -0.7500    1.2990    0.0000 C   0  0  0  0  0  0  0  0  0  0  0  0
   -1.5000    2.5981    0.0000 S   0  0  0  0  0  0  0  0  0  0  0  0
   -0.7500    3.8971    0.0000 C   0  0  0  0  0  0  0  0  0  0  0  0
   -1.5000    5.1962    0.0000 C   0  0  0  0  0  0  0  0  0  0  0  0
   -0.7500    6.4952    0.0000 C   0  0  0  0  0  0  0  0  0  0  0  0
   -1.5000    7.7942    0.0000 C   0  0  0  0  0  0  0  0  0  0  0  0
   -0.7500    9.0933    0.0000 S   0  0  0  0  0  0  0  0  0  0  0  0
   -1.5000   10.3923    0.0000 C   0  0  0  0  0  0  0  0  0  0  0  0
   -0.7500   11.6913    0.0000 N   0  0  0  0  0  0  0  0  0  0  0  0
   -1.5000   12.9904    0.0000 C   0  0  0  0  0  0  0  0  0  0  0  0
   -0.7500   14.2894    0.0000 N   0  0  0  0  0  0  0  0  0  0  0  0
   -3.0000   12.9904    0.0000 C   0  0  0  0  0  0  0  0  0  0  0  0
   -3.7500   11.6913    0.0000 C   0  0  0  0  0  0  0  0  0  0  0  0
   -5.2500   11.6913    0.0000 N   0  0  0  0  0  0  0  0  0  0  0  0
   -3.0000   10.3923    0.0000 N   0  0  0  0  0  0  0  0  0  0  0  0
    0.7500    1.2990    0.0000 N   0  0  0  0  0  0  0  0  0  0  0  0
  1  2  1  0
  2  3  2  0
  3  4  1  0
  4  5  1  0
  4  6  2  0
  6  7  1  0
  7  8  1  0
  8  9  1  0
  9 10  1  0
 10 11  1  0
 11 12  1  0
 12 13  1  0
 13 14  1  0
 14 15  2  0
 15 16  1  0
 16 17  1  0
 16 18  2  0
 18 19  1  0
 19 20  1  0
 19 21  2  0
  7 22  2  0
 22  2  1  0
 21 14  1  0
M  END
>  <Compound_ID>  (107) 
C02828989

>  <Active>  (107) 
0

>  <Smiles>  (107) 
Nc1cc(N)nc(SCCCCSc2nc(N)cc(N)n2)n1

>  <canonical_smi>  (107) 
Nc1cc(N)nc(SCCCCSc2nc(N)cc(N)n2)n1

>  <Set>  (107) 
G2 inactive

>  <Set_type>  (107) 
Train

>  <MW>  (107) 
338.47

>  <HBD>  (107) 
4

>  <HBA>  (107) 
10

>  <NRB>  (107) 
7

>  <NR>  (107) 
2

>  <NAR>  (107) 
2

>  <PSA>  (107) 
155.64

>  <Standard Type>  (107) 
nan

>  <Standard Relation>  (107) 
nan

>  <Standard Units>  (107) 
nan

>  <Standard Value>  (107) 
nan

>  <Assay ChEMBL ID>  (107) 
nan

>  <Assay Description>  (107) 
nan

>  <BAO Label>  (107) 
nan

>  <bits>  (107) 
<rdkit.DataStructs.cDataStructs.ExplicitBitVect object at 0x000002AD6E9B6180>

>  <Group>  (107) 
G2

$$$$

     RDKit          2D

 36 40  0  0  0  0  0  0  0  0999 V2000
    0.7500   -3.8971    0.0000 O   0  0  0  0  0  0  0  0  0  0  0  0
    1.5000   -2.5981    0.0000 C   0  0  0  0  0  0  0  0  0  0  0  0
    0.7500   -1.2990    0.0000 C   0  0  0  0  0  0  0  0  0  0  0  0
    1.5000    0.0000    0.0000 C   0  0  0  0  0  0  0  0  0  0  0  0
    0.7500    1.2990    0.0000 C   0  0  0  0  0  0  0  0  0  0  0  0
   -0.7500    1.2990    0.0000 C   0  0  0  0  0  0  0  0  0  0  0  0
   -1.5000    0.0000    0.0000 C   0  0  0  0  0  0  0  0  0  0  0  0
   -0.7500   -1.2990    0.0000 C   0  0  0  0  0  0  0  0  0  0  0  0
   -1.5000   -2.5981    0.0000 C   0  0  0  0  0  0  0  0  0  0  0  0
   -0.7500   -3.8971    0.0000 O   0  0  0  0  0  0  0  0  0  0  0  0
   -3.0000   -2.5981    0.0000 N   0  0  0  0  0  0  0  0  0  0  0  0
   -3.7500   -1.2990    0.0000 C   0  0  0  0  0  0  0  0  0  0  0  0
   -5.2500   -1.2990    0.0000 C   0  0  0  0  0  0  0  0  0  0  0  0
   -6.0000   -2.5981    0.0000 C   0  0  0  0  0  0  0  0  0  0  0  0
   -7.1491   -1.6339    0.0000 O   0  0  0  0  0  0  0  0  0  0  0  0
   -7.1491   -3.5623    0.0000 C   0  0  0  0  0  0  0  0  0  0  0  0
   -8.5586   -3.0492    0.0000 C   0  0  0  0  0  0  0  0  0  0  0  0
   -9.7077   -4.0134    0.0000 C   0  0  0  0  0  0  0  0  0  0  0  0
   -9.4472   -5.4906    0.0000 C   0  0  0  0  0  0  0  0  0  0  0  0
  -10.5963   -6.4548    0.0000 Cl  0  0  0  0  0  0  0  0  0  0  0  0
   -8.0377   -6.0037    0.0000 C   0  0  0  0  0  0  0  0  0  0  0  0
   -6.8886   -5.0395    0.0000 C   0  0  0  0  0  0  0  0  0  0  0  0
   -5.2500   -3.8971    0.0000 C   0  0  0  0  0  0  0  0  0  0  0  0
   -3.7500   -3.8971    0.0000 C   0  0  0  0  0  0  0  0  0  0  0  0
    3.0000   -2.5981    0.0000 N   0  0  0  0  0  0  0  0  0  0  0  0
    3.7500   -3.8971    0.0000 C   0  0  0  0  0  0  0  0  0  0  0  0
    5.2500   -3.8971    0.0000 C   0  0  0  0  0  0  0  0  0  0  0  0
    6.0000   -2.5981    0.0000 N   0  0  0  0  0  0  0  0  0  0  0  0
    7.5000   -2.5981    0.0000 C   0  0  0  0  0  0  0  0  0  0  0  0
    8.2500   -3.8971    0.0000 C   0  0  0  0  0  0  0  0  0  0  0  0
    9.7500   -3.8971    0.0000 C   0  0  0  0  0  0  0  0  0  0  0  0
   10.5000   -2.5981    0.0000 C   0  0  0  0  0  0  0  0  0  0  0  0
    9.7500   -1.2990    0.0000 C   0  0  0  0  0  0  0  0  0  0  0  0
    8.2500   -1.2990    0.0000 N   0  0  0  0  0  4  0  0  0  0  0  0
    5.2500   -1.2990    0.0000 C   0  0  0  0  0  0  0  0  0  0  0  0
    3.7500   -1.2990    0.0000 C   0  0  0  0  0  0  0  0  0  0  0  0
  1  2  2  0
  3  2  1  6
  3  4  1  0
  4  5  1  0
  5  6  2  0
  6  7  1  0
  7  8  1  0
  8  9  1  6
  9 10  2  0
  9 11  1  0
 11 12  1  0
 12 13  1  0
 13 14  1  0
 14 15  1  0
 14 16  1  0
 16 17  2  0
 17 18  1  0
 18 19  2  0
 19 20  1  0
 19 21  1  0
 21 22  2  0
 14 23  1  0
 23 24  1  0
  2 25  1  0
 25 26  1  0
 26 27  1  0
 27 28  1  0
 28 29  1  0
 29 30  2  0
 30 31  1  0
 31 32  2  0
 32 33  1  0
 33 34  2  0
 28 35  1  0
 35 36  1  0
  8  3  1  0
 24 11  1  0
 36 25  1  0
 22 16  1  0
 34 29  1  0
M  CHG  1  34   1
M  END
>  <Compound_ID>  (108) 
C38733492

>  <Active>  (108) 
0

>  <Smiles>  (108) 
O=C([C@H]1CC=CC[C@H]1C(=O)N1CCC(O)(c2ccc(Cl)cc2)CC1)N1CCN(c2cccc[nH+]2)CC1

>  <canonical_smi>  (108) 
O=C([C@H]1CC=CC[C@H]1C(=O)N1CCC(O)(c2ccc(Cl)cc2)CC1)N1CCN(c2cccc[nH+]2)CC1

>  <Set>  (108) 
G2 inactive

>  <Set_type>  (108) 
Train

>  <MW>  (108) 
510.06

>  <HBD>  (108) 
1

>  <HBA>  (108) 
4

>  <NRB>  (108) 
4

>  <NR>  (108) 
5

>  <NAR>  (108) 
2

>  <PSA>  (108) 
78.23

>  <Standard Type>  (108) 
nan

>  <Standard Relation>  (108) 
nan

>  <Standard Units>  (108) 
nan

>  <Standard Value>  (108) 
nan

>  <Assay ChEMBL ID>  (108) 
nan

>  <Assay Description>  (108) 
nan

>  <BAO Label>  (108) 
nan

>  <bits>  (108) 
<rdkit.DataStructs.cDataStructs.ExplicitBitVect object at 0x000002AD6E9B6260>

>  <Group>  (108) 
G2

$$$$

     RDKit          2D

 23 26  0  0  0  0  0  0  0  0999 V2000
    3.0000    0.0000    0.0000 O   0  0  0  0  0  0  0  0  0  0  0  0
    1.5000    0.0000    0.0000 C   0  0  0  0  0  0  0  0  0  0  0  0
    0.7500   -1.2990    0.0000 C   0  0  0  0  0  0  0  0  0  0  0  0
   -0.7500   -1.2990    0.0000 C   0  0  0  0  0  0  0  0  0  0  0  0
   -1.5000    0.0000    0.0000 C   0  0  0  0  0  0  0  0  0  0  0  0
   -0.7500    1.2990    0.0000 C   0  0  0  0  0  0  0  0  0  0  0  0
   -1.5000    2.5981    0.0000 C   0  0  0  0  0  0  0  0  0  0  0  0
   -0.7500    3.8971    0.0000 C   0  0  0  0  0  0  0  0  0  0  0  0
   -1.5000    5.1962    0.0000 O   0  0  0  0  0  0  0  0  0  0  0  0
   -0.7500    6.4952    0.0000 C   0  0  0  0  0  0  0  0  0  0  0  0
   -1.5000    7.7942    0.0000 C   0  0  0  0  0  0  0  0  0  0  0  0
   -2.9918    7.9510    0.0000 N   0  0  0  0  0  0  0  0  0  0  0  0
   -3.3037    9.4182    0.0000 C   0  0  0  0  0  0  0  0  0  0  0  0
   -2.0046   10.1682    0.0000 C   0  0  0  0  0  0  0  0  0  0  0  0
   -1.8478   11.6600    0.0000 C   0  0  0  0  0  0  0  0  0  0  0  0
   -2.9625   12.6637    0.0000 C   0  0  0  0  0  0  0  0  0  0  0  0
   -2.3524   14.0340    0.0000 C   0  0  0  0  0  0  0  0  0  0  0  0
   -0.8606   13.8772    0.0000 C   0  0  0  0  0  0  0  0  0  0  0  0
   -0.5488   12.4100    0.0000 S   0  0  0  0  0  0  0  0  0  0  0  0
   -0.8899    9.1645    0.0000 O   0  0  0  0  0  0  0  0  0  0  0  0
    0.7500    3.8971    0.0000 C   0  0  0  0  0  0  0  0  0  0  0  0
    1.5000    2.5981    0.0000 C   0  0  0  0  0  0  0  0  0  0  0  0
    0.7500    1.2990    0.0000 C   0  0  0  0  0  0  0  0  0  0  0  0
  1  2  2  0
  2  3  1  0
  3  4  1  0
  4  5  1  0
  5  6  1  0
  6  7  2  0
  7  8  1  0
  8  9  1  0
  9 10  1  0
 10 11  1  0
 11 12  2  0
 12 13  1  0
 13 14  2  0
 14 15  1  0
 15 16  2  0
 16 17  1  0
 17 18  2  0
 18 19  1  0
 14 20  1  0
  8 21  2  0
 21 22  1  0
 22 23  2  0
 23  2  1  0
 23  6  1  0
 20 11  1  0
 19 15  1  0
M  END
>  <Compound_ID>  (109) 
C67429734

>  <Active>  (109) 
0

>  <Smiles>  (109) 
O=C1CCCc2cc(OCc3ncc(-c4cccs4)o3)ccc21

>  <canonical_smi>  (109) 
O=C1CCCc2cc(OCc3ncc(-c4cccs4)o3)ccc21

>  <Set>  (109) 
G2 inactive

>  <Set_type>  (109) 
Train

>  <MW>  (109) 
325.39

>  <HBD>  (109) 
0

>  <HBA>  (109) 
4

>  <NRB>  (109) 
4

>  <NR>  (109) 
4

>  <NAR>  (109) 
3

>  <PSA>  (109) 
52.33

>  <Standard Type>  (109) 
nan

>  <Standard Relation>  (109) 
nan

>  <Standard Units>  (109) 
nan

>  <Standard Value>  (109) 
nan

>  <Assay ChEMBL ID>  (109) 
nan

>  <Assay Description>  (109) 
nan

>  <BAO Label>  (109) 
nan

>  <bits>  (109) 
<rdkit.DataStructs.cDataStructs.ExplicitBitVect object at 0x000002AD6E9B63B0>

>  <Group>  (109) 
G2

$$$$

     RDKit          2D

 32 35  0  0  0  0  0  0  0  0999 V2000
    0.4022  -10.3610    0.0000 C   0  0  0  0  0  0  0  0  0  0  0  0
    0.2454   -8.8692    0.0000 C   0  0  0  0  0  0  0  0  0  0  0  0
    1.3601   -7.8655    0.0000 N   0  0  0  0  0  0  0  0  0  0  0  0
    0.7500   -6.4952    0.0000 C   0  0  0  0  0  0  0  0  0  0  0  0
    1.5000   -5.1962    0.0000 N   0  0  0  0  0  0  0  0  0  0  0  0
    0.7500   -3.8971    0.0000 N   0  0  0  0  0  0  0  0  0  0  0  0
    1.5000   -2.5981    0.0000 N   0  0  0  0  0  0  0  0  0  0  0  0
    0.7500   -1.2990    0.0000 C   0  0  0  0  0  0  0  0  0  0  0  0
    1.5000    0.0000    0.0000 C   0  0  0  0  0  0  0  0  0  0  0  0
    0.7500    1.2990    0.0000 C   0  0  0  0  0  0  0  0  0  0  0  0
   -0.7500    1.2990    0.0000 C   0  0  0  0  0  0  0  0  0  0  0  0
   -1.5000    2.5981    0.0000 C   0  0  0  0  0  0  0  0  0  0  0  0
   -0.7500    3.8971    0.0000 C   0  0  0  0  0  0  0  0  0  0  0  0
   -1.5000    5.1962    0.0000 C   0  0  0  0  0  0  0  0  0  0  0  0
   -3.0000    5.1962    0.0000 C   0  0  0  0  0  0  0  0  0  0  0  0
   -3.7500    6.4952    0.0000 N   0  0  0  0  0  0  0  0  0  0  0  0
   -3.0000    7.7942    0.0000 N   0  0  0  0  0  0  0  0  0  0  0  0
   -3.7500    9.0933    0.0000 N   0  0  0  0  0  0  0  0  0  0  0  0
   -3.0000   10.3923    0.0000 C   0  0  0  0  0  0  0  0  0  0  0  0
   -3.6101   11.7626    0.0000 N   0  0  0  0  0  0  0  0  0  0  0  0
   -2.4954   12.7663    0.0000 C   0  0  0  0  0  0  0  0  0  0  0  0
   -2.6522   14.2581    0.0000 C   0  0  0  0  0  0  0  0  0  0  0  0
   -1.1963   12.0163    0.0000 C   0  0  0  0  0  0  0  0  0  0  0  0
    0.1740   12.6264    0.0000 C   0  0  0  0  0  0  0  0  0  0  0  0
   -1.5082   10.5491    0.0000 S   0  0  0  0  0  0  0  0  0  0  0  0
   -3.7500    3.8971    0.0000 C   0  0  0  0  0  0  0  0  0  0  0  0
   -3.0000    2.5981    0.0000 C   0  0  0  0  0  0  0  0  0  0  0  0
   -1.5000    0.0000    0.0000 C   0  0  0  0  0  0  0  0  0  0  0  0
   -0.7500   -1.2990    0.0000 C   0  0  0  0  0  0  0  0  0  0  0  0
   -0.7418   -6.6520    0.0000 S   0  0  0  0  0  0  0  0  0  0  0  0
   -1.0537   -8.1192    0.0000 C   0  0  0  0  0  0  0  0  0  0  0  0
   -2.4240   -8.7293    0.0000 C   0  0  0  0  0  0  0  0  0  0  0  0
  1  2  1  0
  2  3  1  0
  3  4  2  0
  4  5  1  0
  5  6  2  0
  6  7  1  0
  7  8  1  0
  8  9  2  0
  9 10  1  0
 10 11  2  0
 11 12  1  0
 12 13  2  0
 13 14  1  0
 14 15  2  0
 15 16  1  0
 16 17  2  0
 17 18  1  0
 18 19  1  0
 19 20  2  0
 20 21  1  0
 21 22  1  0
 21 23  2  0
 23 24  1  0
 23 25  1  0
 15 26  1  0
 26 27  2  0
 11 28  1  0
 28 29  2  0
  4 30  1  0
 30 31  1  0
 31 32  1  0
 31  2  2  0
 29  8  1  0
 27 12  1  0
 25 19  1  0
M  END
>  <Compound_ID>  (110) 
C27586887

>  <Active>  (110) 
0

>  <Smiles>  (110) 
Cc1nc(/N=N/Nc2ccc(-c3ccc(/N=N/Nc4nc(C)c(C)s4)cc3)cc2)sc1C

>  <canonical_smi>  (110) 
Cc1nc(/N=N/Nc2ccc(-c3ccc(/N=N/Nc4nc(C)c(C)s4)cc3)cc2)sc1C

>  <Set>  (110) 
G2 inactive

>  <Set_type>  (110) 
Train

>  <MW>  (110) 
462.61

>  <HBD>  (110) 
2

>  <HBA>  (110) 
4

>  <NRB>  (110) 
7

>  <NR>  (110) 
4

>  <NAR>  (110) 
4

>  <PSA>  (110) 
99.28

>  <Standard Type>  (110) 
nan

>  <Standard Relation>  (110) 
nan

>  <Standard Units>  (110) 
nan

>  <Standard Value>  (110) 
nan

>  <Assay ChEMBL ID>  (110) 
nan

>  <Assay Description>  (110) 
nan

>  <BAO Label>  (110) 
nan

>  <bits>  (110) 
<rdkit.DataStructs.cDataStructs.ExplicitBitVect object at 0x000002AD6E9B67A0>

>  <Group>  (110) 
G2

$$$$

     RDKit          2D

 29 32  0  0  0  0  0  0  0  0999 V2000
    2.8741  -12.5627    0.0000 C   0  0  0  0  0  0  0  0  0  0  0  0
    4.0876  -11.6810    0.0000 S   0  0  0  0  0  0  0  0  0  0  0  0
    3.2059  -10.4675    0.0000 O   0  0  0  0  0  0  0  0  0  0  0  0
    4.9693  -12.8945    0.0000 O   0  0  0  0  0  0  0  0  0  0  0  0
    5.3011  -10.7993    0.0000 N   0  0  0  0  0  0  0  0  0  0  0  0
    5.1443   -9.3075    0.0000 C   0  0  0  0  0  0  0  0  0  0  0  0
    3.7740   -8.6974    0.0000 C   0  0  0  0  0  0  0  0  0  0  0  0
    3.6172   -7.2057    0.0000 C   0  0  0  0  0  0  0  0  0  0  0  0
    4.8308   -6.3240    0.0000 C   0  0  0  0  0  0  0  0  0  0  0  0
    4.6740   -4.8322    0.0000 C   0  0  0  0  0  0  0  0  0  0  0  0
    3.3037   -4.2221    0.0000 C   0  0  0  0  0  0  0  0  0  0  0  0
    2.0046   -4.9721    0.0000 N   0  0  0  0  0  0  0  0  0  0  0  0
    0.8899   -3.9684    0.0000 O   0  0  0  0  0  0  0  0  0  0  0  0
    1.5000   -2.5981    0.0000 C   0  0  0  0  0  0  0  0  0  0  0  0
    0.7500   -1.2990    0.0000 C   0  0  0  0  0  0  0  0  0  0  0  0
    1.5000    0.0000    0.0000 C   0  0  0  0  0  0  0  0  0  0  0  0
    0.7500    1.2990    0.0000 C   0  0  0  0  0  0  0  0  0  0  0  0
    1.2135    2.7256    0.0000 C   0  0  0  0  0  0  0  0  0  0  0  0
    2.6401    3.1891    0.0000 C   0  0  0  0  0  0  0  0  0  0  0  0
    2.9520    4.6564    0.0000 C   0  0  0  0  0  0  0  0  0  0  0  0
    4.3786    5.1199    0.0000 N   0  0  0  0  0  4  0  0  0  0  0  0
    0.0000    3.6073    0.0000 C   0  0  0  0  0  0  0  0  0  0  0  0
   -1.2135    2.7256    0.0000 N   0  0  0  0  0  0  0  0  0  0  0  0
   -0.7500    1.2990    0.0000 C   0  0  0  0  0  0  0  0  0  0  0  0
   -1.5000    0.0000    0.0000 C   0  0  0  0  0  0  0  0  0  0  0  0
   -0.7500   -1.2990    0.0000 C   0  0  0  0  0  0  0  0  0  0  0  0
    2.9918   -2.7549    0.0000 N   0  0  0  0  0  0  0  0  0  0  0  0
    6.2011   -6.9341    0.0000 C   0  0  0  0  0  0  0  0  0  0  0  0
    6.3579   -8.4259    0.0000 C   0  0  0  0  0  0  0  0  0  0  0  0
  1  2  1  0
  2  3  2  0
  2  4  2  0
  2  5  1  0
  5  6  1  0
  6  7  2  0
  7  8  1  0
  8  9  2  0
  9 10  1  0
 10 11  1  0
 11 12  2  0
 12 13  1  0
 13 14  1  0
 14 15  1  6
 15 16  2  0
 16 17  1  0
 17 18  2  0
 18 19  1  0
 19 20  1  0
 20 21  1  0
 18 22  1  0
 22 23  2  0
 23 24  1  0
 24 25  1  6
 25 26  2  0
 14 27  1  0
  9 28  1  0
 28 29  2  0
 29  6  1  0
 27 11  1  0
 26 15  1  0
 24 17  1  0
M  CHG  1  21   1
M  END
>  <Compound_ID>  (111) 
C39947080

>  <Active>  (111) 
0

>  <Smiles>  (111) 
CS(=O)(=O)Nc1ccc(CC2=NO[C@H](C3=CC4=C(CC[NH3+])C=N[C@H]4C=C3)N2)cc1

>  <canonical_smi>  (111) 
CS(=O)(=O)Nc1ccc(CC2=NO[C@H](C3=CC4=C(CC[NH3+])C=N[C@H]4C=C3)N2)cc1

>  <Set>  (111) 
G2 inactive

>  <Set_type>  (111) 
Train

>  <MW>  (111) 
414.51

>  <HBD>  (111) 
3

>  <HBA>  (111) 
4

>  <NRB>  (111) 
7

>  <NR>  (111) 
4

>  <NAR>  (111) 
1

>  <PSA>  (111) 
119.79

>  <Standard Type>  (111) 
nan

>  <Standard Relation>  (111) 
nan

>  <Standard Units>  (111) 
nan

>  <Standard Value>  (111) 
nan

>  <Assay ChEMBL ID>  (111) 
nan

>  <Assay Description>  (111) 
nan

>  <BAO Label>  (111) 
nan

>  <bits>  (111) 
<rdkit.DataStructs.cDataStructs.ExplicitBitVect object at 0x000002AD6E9B6FF0>

>  <Group>  (111) 
G2

$$$$

     RDKit          2D

 28 31  0  0  0  0  0  0  0  0999 V2000
    5.2500   -1.2990    0.0000 C   0  0  0  0  0  0  0  0  0  0  0  0
    3.7500   -1.2990    0.0000 N   0  0  0  0  0  4  0  0  0  0  0  0
    3.0000   -2.5981    0.0000 C   0  0  0  0  0  0  0  0  0  0  0  0
    3.0000    0.0000    0.0000 C   0  0  0  0  0  0  0  0  0  0  0  0
    1.5000    0.0000    0.0000 C   0  0  0  0  0  0  0  0  0  0  0  0
    0.7500   -1.2990    0.0000 C   0  0  0  0  0  0  0  0  0  0  0  0
   -0.7500   -1.2990    0.0000 C   0  0  0  0  0  0  0  0  0  0  0  0
   -1.5000    0.0000    0.0000 N   0  0  0  0  0  0  0  0  0  0  0  0
   -2.9672    0.3119    0.0000 C   0  0  0  0  0  0  0  0  0  0  0  0
   -4.0819   -0.6918    0.0000 C   0  0  0  0  0  0  0  0  0  0  0  0
   -5.5085   -0.2283    0.0000 C   0  0  0  0  0  0  0  0  0  0  0  0
   -6.6232   -1.2320    0.0000 C   0  0  0  0  0  0  0  0  0  0  0  0
   -6.3114   -2.6992    0.0000 N   0  0  0  0  0  0  0  0  0  0  0  0
   -4.8848   -3.1627    0.0000 C   0  0  0  0  0  0  0  0  0  0  0  0
   -4.5729   -4.6300    0.0000 N   0  0  0  0  0  0  0  0  0  0  0  0
   -3.7701   -2.1590    0.0000 N   0  0  0  0  0  0  0  0  0  0  0  0
   -3.1240    1.8037    0.0000 C   0  0  0  0  0  0  0  0  0  0  0  0
   -4.4231    2.5537    0.0000 C   0  0  0  0  0  0  0  0  0  0  0  0
   -4.4231    4.0537    0.0000 C   0  0  0  0  0  0  0  0  0  0  0  0
   -5.7221    4.8037    0.0000 C   0  0  0  0  0  0  0  0  0  0  0  0
   -7.0211    4.0537    0.0000 C   0  0  0  0  0  0  0  0  0  0  0  0
   -8.3202    4.8037    0.0000 F   0  0  0  0  0  0  0  0  0  0  0  0
   -7.0211    2.5537    0.0000 C   0  0  0  0  0  0  0  0  0  0  0  0
   -8.3202    1.8037    0.0000 Br  0  0  0  0  0  0  0  0  0  0  0  0
   -5.7221    1.8037    0.0000 C   0  0  0  0  0  0  0  0  0  0  0  0
   -1.7537    2.4138    0.0000 N   0  0  0  0  0  0  0  0  0  0  0  0
   -0.7500    1.2990    0.0000 C   0  0  0  0  0  0  0  0  0  0  0  0
    0.7500    1.2990    0.0000 C   0  0  0  0  0  0  0  0  0  0  0  0
  1  2  1  0
  2  3  1  0
  2  4  1  0
  4  5  1  0
  5  6  1  0
  6  7  2  0
  7  8  1  0
  8  9  1  0
  9 10  1  0
 10 11  2  0
 11 12  1  0
 12 13  2  0
 13 14  1  0
 14 15  1  0
 14 16  2  0
  9 17  2  0
 17 18  1  0
 18 19  2  0
 19 20  1  0
 20 21  2  0
 21 22  1  0
 21 23  1  0
 23 24  1  0
 23 25  2  0
 17 26  1  0
 26 27  2  0
 27 28  1  0
 28  5  2  0
 27  8  1  0
 16 10  1  0
 25 18  1  0
M  CHG  1   2   1
M  END
>  <Compound_ID>  (112) 
C28963811

>  <Active>  (112) 
0

>  <Smiles>  (112) 
C[NH+](C)Cc1ccn2c(-c3ccnc(N)n3)c(-c3ccc(F)c(Br)c3)nc2c1

>  <canonical_smi>  (112) 
C[NH+](C)Cc1ccn2c(-c3ccnc(N)n3)c(-c3ccc(F)c(Br)c3)nc2c1

>  <Set>  (112) 
G2 inactive

>  <Set_type>  (112) 
Train

>  <MW>  (112) 
442.32

>  <HBD>  (112) 
2

>  <HBA>  (112) 
4

>  <NRB>  (112) 
4

>  <NR>  (112) 
4

>  <NAR>  (112) 
4

>  <PSA>  (112) 
73.54

>  <Standard Type>  (112) 
nan

>  <Standard Relation>  (112) 
nan

>  <Standard Units>  (112) 
nan

>  <Standard Value>  (112) 
nan

>  <Assay ChEMBL ID>  (112) 
nan

>  <Assay Description>  (112) 
nan

>  <BAO Label>  (112) 
nan

>  <bits>  (112) 
<rdkit.DataStructs.cDataStructs.ExplicitBitVect object at 0x000002AD6E9B7060>

>  <Group>  (112) 
G2

$$$$

     RDKit          2D

 19 20  0  0  0  0  0  0  0  0999 V2000
    2.0490   -4.6471    0.0000 O   0  0  0  0  0  0  0  0  0  0  0  0
    0.7500   -3.8971    0.0000 S   0  0  0  0  0  0  0  0  0  0  0  0
   -0.5490   -3.1471    0.0000 O   0  0  0  0  0  0  0  0  0  0  0  0
    1.5000   -2.5981    0.0000 N   0  0  0  0  0  2  0  0  0  0  0  0
    0.7500   -1.2990    0.0000 C   0  0  0  0  0  0  0  0  0  0  0  0
    1.5000    0.0000    0.0000 C   0  0  0  0  0  0  0  0  0  0  0  0
    3.0000    0.0000    0.0000 Br  0  0  0  0  0  0  0  0  0  0  0  0
    0.7500    1.2990    0.0000 C   0  0  0  0  0  0  0  0  0  0  0  0
   -0.7500    1.2990    0.0000 C   0  0  0  0  0  0  0  0  0  0  0  0
   -1.5000    2.5981    0.0000 Br  0  0  0  0  0  0  0  0  0  0  0  0
   -1.5000    0.0000    0.0000 C   0  0  0  0  0  0  0  0  0  0  0  0
   -0.7500   -1.2990    0.0000 C   0  0  0  0  0  0  0  0  0  0  0  0
   -1.5000   -2.5981    0.0000 Br  0  0  0  0  0  0  0  0  0  0  0  0
   -0.0000   -5.1962    0.0000 N   0  0  0  0  0  0  0  0  0  0  0  0
   -1.5000   -5.1962    0.0000 C   0  0  0  0  0  0  0  0  0  0  0  0
   -2.2500   -6.4952    0.0000 C   0  0  0  0  0  0  0  0  0  0  0  0
   -1.5000   -7.7942    0.0000 N   0  0  0  0  0  4  0  0  0  0  0  0
   -0.0000   -7.7942    0.0000 C   0  0  0  0  0  0  0  0  0  0  0  0
    0.7500   -6.4952    0.0000 C   0  0  0  0  0  0  0  0  0  0  0  0
  1  2  2  0
  2  3  2  0
  2  4  1  0
  4  5  1  0
  5  6  2  0
  6  7  1  0
  6  8  1  0
  8  9  2  0
  9 10  1  0
  9 11  1  0
 11 12  2  0
 12 13  1  0
  2 14  1  0
 14 15  1  0
 15 16  1  0
 16 17  1  0
 17 18  1  0
 18 19  1  0
 12  5  1  0
 19 14  1  0
M  CHG  2   4  -1  17   1
M  END
>  <Compound_ID>  (113) 
C20504871

>  <Active>  (113) 
0

>  <Smiles>  (113) 
O=S(=O)([N-]c1c(Br)cc(Br)cc1Br)N1CC[NH2+]CC1

>  <canonical_smi>  (113) 
O=S(=O)([N-]c1c(Br)cc(Br)cc1Br)N1CC[NH2+]CC1

>  <Set>  (113) 
G2 inactive

>  <Set_type>  (113) 
Train

>  <MW>  (113) 
478.0

>  <HBD>  (113) 
1

>  <HBA>  (113) 
2

>  <NRB>  (113) 
3

>  <NR>  (113) 
2

>  <NAR>  (113) 
1

>  <PSA>  (113) 
68.09

>  <Standard Type>  (113) 
nan

>  <Standard Relation>  (113) 
nan

>  <Standard Units>  (113) 
nan

>  <Standard Value>  (113) 
nan

>  <Assay ChEMBL ID>  (113) 
nan

>  <Assay Description>  (113) 
nan

>  <BAO Label>  (113) 
nan

>  <bits>  (113) 
<rdkit.DataStructs.cDataStructs.ExplicitBitVect object at 0x000002AD6E9B71B0>

>  <Group>  (113) 
G2

$$$$

     RDKit          2D

 34 36  0  0  0  0  0  0  0  0999 V2000
    0.2624    4.3456    0.0000 C   0  0  0  0  0  0  0  0  0  0  0  0
   -1.2343    4.4437    0.0000 C   0  0  0  0  0  0  0  0  0  0  0  0
   -1.8978    5.7890    0.0000 C   0  0  0  0  0  0  0  0  0  0  0  0
   -1.0644    7.0362    0.0000 C   0  0  0  0  0  0  0  0  0  0  0  0
   -1.5836    8.4435    0.0000 C   0  0  0  0  0  0  0  0  0  0  0  0
   -0.4056    9.3721    0.0000 S   0  0  0  0  0  0  0  0  0  0  0  0
    0.8416    8.5388    0.0000 C   0  0  0  0  0  0  0  0  0  0  0  0
    2.2489    9.0579    0.0000 C   0  0  0  0  0  0  0  0  0  0  0  0
    0.4344    7.0951    0.0000 N   0  0  0  0  0  0  0  0  0  0  0  0
   -2.0677    3.1965    0.0000 C   0  0  0  0  0  0  0  0  0  0  0  0
   -1.0070    2.1358    0.0000 C   0  0  0  0  0  0  0  0  0  0  0  0
   -0.4330    0.7500    0.0000 C   0  0  0  0  0  0  0  0  0  0  0  0
    0.8660    0.0000    0.0000 O   0  0  0  0  0  0  0  0  0  0  0  0
   -0.4330   -0.7500    0.0000 C   0  0  0  0  0  0  0  0  0  0  0  0
   -1.0070   -2.1358    0.0000 C   0  0  0  0  0  0  0  0  0  0  0  0
   -2.0677   -3.1965    0.0000 C   0  0  0  0  0  0  0  0  0  0  0  0
   -3.4535   -3.7705    0.0000 C   0  0  0  0  0  0  0  0  0  0  0  0
   -4.9535   -3.7705    0.0000 C   0  0  0  0  0  0  0  0  0  0  0  0
   -5.2462   -5.2417    0.0000 C   0  0  0  0  0  0  0  0  0  0  0  0
   -6.3393   -3.1965    0.0000 C   0  0  0  0  0  0  0  0  0  0  0  0
   -7.1727   -4.4437    0.0000 O   0  0  0  0  0  0  0  0  0  0  0  0
   -7.4000   -2.1358    0.0000 C   0  0  0  0  0  0  0  0  0  0  0  0
   -8.6472   -2.9692    0.0000 C   0  0  0  0  0  0  0  0  0  0  0  0
   -7.9740   -0.7500    0.0000 C   0  0  0  0  0  0  0  0  0  0  0  0
   -9.4452   -1.0426    0.0000 O   0  0  0  0  0  0  0  0  0  0  0  0
   -7.9740    0.7500    0.0000 C   0  0  0  0  0  0  0  0  0  0  0  0
   -9.0347    1.8107    0.0000 C   0  0  0  0  0  0  0  0  0  0  0  0
   -9.3598    0.1760    0.0000 C   0  0  0  0  0  0  0  0  0  0  0  0
   -7.4000    2.1358    0.0000 C   0  0  0  0  0  0  0  0  0  0  0  0
   -8.6472    2.9692    0.0000 O   0  0  0  0  0  0  0  0  0  0  0  0
   -6.3393    3.1965    0.0000 C   0  0  0  0  0  0  0  0  0  0  0  0
   -4.9535    3.7705    0.0000 C   0  0  0  0  0  0  0  0  0  0  0  0
   -5.2462    5.2417    0.0000 O   0  0  0  0  0  0  0  0  0  0  0  0
   -3.4535    3.7705    0.0000 O   0  0  0  0  0  0  0  0  0  0  0  0
  1  2  1  0
  2  3  2  0
  3  4  1  0
  4  5  2  0
  5  6  1  0
  6  7  1  0
  7  8  1  0
  7  9  2  0
 10  2  1  1
 10 11  1  0
 12 11  1  6
 12 13  1  0
 13 14  1  0
 14 15  1  6
 15 16  1  0
 16 17  1  0
 17 18  1  0
 18 19  1  6
 18 20  1  0
 20 21  1  6
 20 22  1  0
 22 23  1  1
 22 24  1  0
 24 25  2  0
 24 26  1  0
 26 27  1  0
 26 28  1  0
 26 29  1  0
 29 30  1  1
 29 31  1  0
 31 32  1  0
 32 33  2  0
 32 34  1  0
  9  4  1  0
 34 10  1  0
 14 12  1  0
M  END
>  <Compound_ID>  (114) 
C44963251

>  <Active>  (114) 
0

>  <Smiles>  (114) 
C/C(=C\c1csc(C)n1)[C@H]1C[C@@H]2O[C@@H]2CCC[C@H](C)[C@H](O)[C@@H](C)C(=O)C(C)(C)[C@@H](O)CC(=O)O1

>  <canonical_smi>  (114) 
C/C(=C\c1csc(C)n1)[C@H]1C[C@@H]2O[C@@H]2CCC[C@H](C)[C@H](O)[C@@H](C)C(=O)C(C)(C)[C@@H](O)CC(=O)O1

>  <Set>  (114) 
G2 inactive

>  <Set_type>  (114) 
Train

>  <MW>  (114) 
493.67

>  <HBD>  (114) 
2

>  <HBA>  (114) 
7

>  <NRB>  (114) 
2

>  <NR>  (114) 
3

>  <NAR>  (114) 
1

>  <PSA>  (114) 
109.25

>  <Standard Type>  (114) 
nan

>  <Standard Relation>  (114) 
nan

>  <Standard Units>  (114) 
nan

>  <Standard Value>  (114) 
nan

>  <Assay ChEMBL ID>  (114) 
nan

>  <Assay Description>  (114) 
nan

>  <BAO Label>  (114) 
nan

>  <bits>  (114) 
<rdkit.DataStructs.cDataStructs.ExplicitBitVect object at 0x000002AD6E9B4350>

>  <Group>  (114) 
G2

$$$$

     RDKit          2D

 16 17  0  0  0  0  0  0  0  0999 V2000
    3.0000    0.0000    0.0000 O   0  0  0  0  0  0  0  0  0  0  0  0
    1.5000    0.0000    0.0000 C   0  0  0  0  0  0  0  0  0  0  0  0
    0.7500   -1.2990    0.0000 C   0  0  0  0  0  0  0  0  0  0  0  0
    1.5000   -2.5981    0.0000 I   0  0  0  0  0  0  0  0  0  0  0  0
   -0.7500   -1.2990    0.0000 C   0  0  0  0  0  0  0  0  0  0  0  0
   -1.5000    0.0000    0.0000 C   0  0  0  0  0  0  0  0  0  0  0  0
   -3.0000    0.0000    0.0000 I   0  0  0  0  0  0  0  0  0  0  0  0
   -0.7500    1.2990    0.0000 C   0  0  0  0  0  0  0  0  0  0  0  0
    0.7500    1.2990    0.0000 C   0  0  0  0  0  0  0  0  0  0  0  0
    1.5000    2.5981    0.0000 C   0  0  0  0  0  0  0  0  0  0  0  0
    3.0000    2.5981    0.0000 N   0  0  0  0  0  0  0  0  0  0  0  0
    3.7500    3.8971    0.0000 C   0  0  0  0  0  0  0  0  0  0  0  0
    3.1399    5.2674    0.0000 C   0  0  0  0  0  0  0  0  0  0  0  0
    4.2546    6.2711    0.0000 N   0  0  0  0  0  0  0  0  0  0  0  0
    5.5537    5.5211    0.0000 N   0  0  0  0  0  0  0  0  0  0  0  0
    5.2418    4.0539    0.0000 N   0  0  0  0  0  0  0  0  0  0  0  0
  1  2  1  0
  2  3  2  0
  3  4  1  0
  3  5  1  0
  5  6  2  0
  6  7  1  0
  6  8  1  0
  8  9  2  0
  9 10  1  0
 10 11  2  0
 11 12  1  0
 12 13  1  0
 13 14  2  0
 14 15  1  0
 15 16  1  0
  9  2  1  0
 16 12  2  0
M  END
>  <Compound_ID>  (115) 
C08951352

>  <Active>  (115) 
0

>  <Smiles>  (115) 
Oc1c(I)cc(I)cc1/C=N/c1cn[nH]n1

>  <canonical_smi>  (115) 
Oc1c(I)cc(I)cc1/C=N/c1cn[nH]n1

>  <Set>  (115) 
G2 inactive

>  <Set_type>  (115) 
Train

>  <MW>  (115) 
439.98

>  <HBD>  (115) 
2

>  <HBA>  (115) 
3

>  <NRB>  (115) 
2

>  <NR>  (115) 
2

>  <NAR>  (115) 
2

>  <PSA>  (115) 
74.16

>  <Standard Type>  (115) 
nan

>  <Standard Relation>  (115) 
nan

>  <Standard Units>  (115) 
nan

>  <Standard Value>  (115) 
nan

>  <Assay ChEMBL ID>  (115) 
nan

>  <Assay Description>  (115) 
nan

>  <BAO Label>  (115) 
nan

>  <bits>  (115) 
<rdkit.DataStructs.cDataStructs.ExplicitBitVect object at 0x000002AD6E9B4900>

>  <Group>  (115) 
G2

$$$$

     RDKit          2D

 31 33  0  0  0  0  0  0  0  0999 V2000
    3.0000    0.0000    0.0000 C   0  0  0  0  0  0  0  0  0  0  0  0
    1.5000    0.0000    0.0000 C   0  0  0  0  0  0  0  0  0  0  0  0
    0.7500   -1.2990    0.0000 C   0  0  0  0  0  0  0  0  0  0  0  0
   -0.7500   -1.2990    0.0000 C   0  0  0  0  0  0  0  0  0  0  0  0
   -1.5000    0.0000    0.0000 C   0  0  0  0  0  0  0  0  0  0  0  0
   -0.7500    1.2990    0.0000 C   0  0  0  0  0  0  0  0  0  0  0  0
    0.7500    1.2990    0.0000 C   0  0  0  0  0  0  0  0  0  0  0  0
    1.5000    2.5981    0.0000 N   0  0  0  0  0  0  0  0  0  0  0  0
    0.8899    3.9684    0.0000 N   0  0  0  0  0  0  0  0  0  0  0  0
    2.0046    4.9721    0.0000 C   0  0  0  0  0  0  0  0  0  0  0  0
    1.8478    6.4639    0.0000 C   0  0  0  0  0  0  0  0  0  0  0  0
    3.3396    6.6207    0.0000 C   0  0  0  0  0  0  0  0  0  0  0  0
    0.3560    6.3071    0.0000 C   0  0  0  0  0  0  0  0  0  0  0  0
    1.6910    7.9557    0.0000 C   0  0  0  0  0  0  0  0  0  0  0  0
    3.3037    4.2221    0.0000 C   0  0  0  0  0  0  0  0  0  0  0  0
    2.9918    2.7549    0.0000 C   0  0  0  0  0  0  0  0  0  0  0  0
    3.9955    1.6402    0.0000 N   0  0  0  0  0  0  0  0  0  0  0  0
    5.4627    1.9520    0.0000 C   0  0  0  0  0  0  0  0  0  0  0  0
    5.9262    3.3786    0.0000 O   0  0  0  0  0  0  0  0  0  0  0  0
    6.4664    0.8373    0.0000 C   0  0  0  0  0  0  0  0  0  0  0  0
    7.9336    1.1492    0.0000 N   0  0  0  0  0  0  0  0  0  0  0  0
    8.9373    0.0345    0.0000 C   0  0  0  0  0  0  0  0  0  0  0  0
    8.4738   -1.3921    0.0000 C   0  0  0  0  0  0  0  0  0  0  0  0
    9.4775   -2.5068    0.0000 C   0  0  0  0  0  0  0  0  0  0  0  0
    7.0066   -1.7040    0.0000 C   0  0  0  0  0  0  0  0  0  0  0  0
    8.3971    2.5758    0.0000 C   0  0  0  0  0  0  0  0  0  0  0  0
    7.3934    3.6905    0.0000 O   0  0  0  0  0  0  0  0  0  0  0  0
    9.8644    2.8876    0.0000 C   0  0  0  0  0  0  0  0  0  0  0  0
   10.6813    4.1456    0.0000 C   0  0  0  0  0  0  0  0  0  0  0  0
   11.9393    3.3287    0.0000 C   0  0  0  0  0  0  0  0  0  0  0  0
   11.1224    2.0707    0.0000 C   0  0  0  0  0  0  0  0  0  0  0  0
  1  2  1  0
  2  3  2  0
  3  4  1  0
  4  5  2  0
  5  6  1  0
  6  7  2  0
  7  8  1  0
  8  9  1  0
  9 10  2  0
 10 11  1  0
 11 12  1  0
 11 13  1  0
 11 14  1  0
 10 15  1  0
 15 16  2  0
 16 17  1  0
 17 18  1  0
 18 19  2  0
 18 20  1  0
 20 21  1  0
 21 22  1  0
 22 23  1  0
 23 24  1  0
 23 25  1  0
 21 26  1  0
 26 27  2  0
 26 28  1  0
 28 29  1  0
 29 30  1  0
 30 31  1  0
  7  2  1  0
 16  8  1  0
 31 28  1  0
M  END
>  <Compound_ID>  (116) 
C35130596

>  <Active>  (116) 
0

>  <Smiles>  (116) 
Cc1ccccc1-n1nc(C(C)(C)C)cc1NC(=O)CN(CC(C)C)C(=O)C1CCC1

>  <canonical_smi>  (116) 
Cc1ccccc1-n1nc(C(C)(C)C)cc1NC(=O)CN(CC(C)C)C(=O)C1CCC1

>  <Set>  (116) 
G2 inactive

>  <Set_type>  (116) 
Train

>  <MW>  (116) 
424.59

>  <HBD>  (116) 
1

>  <HBA>  (116) 
3

>  <NRB>  (116) 
7

>  <NR>  (116) 
3

>  <NAR>  (116) 
2

>  <PSA>  (116) 
67.23

>  <Standard Type>  (116) 
nan

>  <Standard Relation>  (116) 
nan

>  <Standard Units>  (116) 
nan

>  <Standard Value>  (116) 
nan

>  <Assay ChEMBL ID>  (116) 
nan

>  <Assay Description>  (116) 
nan

>  <BAO Label>  (116) 
nan

>  <bits>  (116) 
<rdkit.DataStructs.cDataStructs.ExplicitBitVect object at 0x000002AD6E9B4C10>

>  <Group>  (116) 
G2

$$$$

     RDKit          2D

 27 31  0  0  0  0  0  0  0  0999 V2000
    8.8142    3.7825    0.0000 C   0  0  0  0  0  0  0  0  0  0  0  0
    7.3425    3.4926    0.0000 C   0  0  0  0  0  0  0  0  0  0  0  0
    6.8577    2.0731    0.0000 C   0  0  0  0  0  0  0  0  0  0  0  0
    5.3859    1.7832    0.0000 C   0  0  0  0  0  0  0  0  0  0  0  0
    4.9011    0.3638    0.0000 C   0  0  0  0  0  0  0  0  0  0  0  0
    4.3990    2.9128    0.0000 C   0  0  0  0  0  0  0  0  0  0  0  0
    4.8839    4.3323    0.0000 C   0  0  0  0  0  0  0  0  0  0  0  0
    3.8969    5.4619    0.0000 C   0  0  0  0  0  0  0  0  0  0  0  0
    4.3818    6.8814    0.0000 N   0  0  0  0  0  0  0  0  0  0  0  0
    3.3949    8.0110    0.0000 C   0  0  0  0  0  0  0  0  0  0  0  0
    3.8797    9.4305    0.0000 N   0  0  0  0  0  4  0  0  0  0  0  0
    1.9231    7.7212    0.0000 N   0  0  0  0  0  0  0  0  0  0  0  0
    1.4383    6.3017    0.0000 C   0  0  0  0  0  0  0  0  0  0  0  0
    0.0590    5.7121    0.0000 N   0  0  0  0  0  0  0  0  0  0  0  0
    0.1935    4.2182    0.0000 C   0  0  0  0  0  0  0  0  0  0  0  0
   -0.8268    3.1186    0.0000 C   0  0  0  0  0  0  0  0  0  0  0  0
   -0.3846    1.6852    0.0000 C   0  0  0  0  0  0  0  0  0  0  0  0
    1.0777    1.3515    0.0000 C   0  0  0  0  0  0  0  0  0  0  0  0
    2.0980    2.4510    0.0000 C   0  0  0  0  0  0  0  0  0  0  0  0
    1.6559    3.8844    0.0000 C   0  0  0  0  0  0  0  0  0  0  0  0
    2.4252    5.1721    0.0000 N   0  0  0  0  0  0  0  0  0  0  0  0
    1.7286    0.0000    0.0000 O   0  0  0  0  0  0  0  0  0  0  0  0
    1.0777   -1.3515    0.0000 C   0  0  0  0  0  0  0  0  0  0  0  0
   -0.3846   -1.6852    0.0000 C   0  0  0  0  0  0  0  0  0  0  0  0
   -1.5574   -0.7500    0.0000 C   0  0  0  0  0  0  0  0  0  0  0  0
   -1.5574    0.7500    0.0000 O   0  0  0  0  0  0  0  0  0  0  0  0
    6.3556    4.6222    0.0000 C   0  0  0  0  0  0  0  0  0  0  0  0
  1  2  1  0
  2  3  2  0
  3  4  1  0
  4  5  1  0
  4  6  2  0
  6  7  1  0
  8  7  1  1
  8  9  1  0
  9 10  1  0
 10 11  2  0
 10 12  1  0
 12 13  1  0
 13 14  2  0
 14 15  1  0
 15 16  2  0
 16 17  1  0
 17 18  2  0
 18 19  1  0
 19 20  2  0
 20 21  1  0
 18 22  1  0
 22 23  1  0
 23 24  1  0
 24 25  1  0
 25 26  1  0
  7 27  2  0
 27  2  1  0
 21  8  1  0
 21 13  1  0
 20 15  1  0
 26 17  1  0
M  CHG  1  11   1
M  END
>  <Compound_ID>  (117) 
C67438698

>  <Active>  (117) 
0

>  <Smiles>  (117) 
Cc1cc(C)cc([C@@H]2NC(=[NH2+])Nc3nc4cc5c(cc4n32)OCCCO5)c1

>  <canonical_smi>  (117) 
Cc1cc(C)cc([C@@H]2NC(=[NH2+])Nc3nc4cc5c(cc4n32)OCCCO5)c1

>  <Set>  (117) 
G2 inactive

>  <Set_type>  (117) 
Train

>  <MW>  (117) 
364.43

>  <HBD>  (117) 
3

>  <HBA>  (117) 
5

>  <NRB>  (117) 
1

>  <NR>  (117) 
5

>  <NAR>  (117) 
3

>  <PSA>  (117) 
85.93

>  <Standard Type>  (117) 
nan

>  <Standard Relation>  (117) 
nan

>  <Standard Units>  (117) 
nan

>  <Standard Value>  (117) 
nan

>  <Assay ChEMBL ID>  (117) 
nan

>  <Assay Description>  (117) 
nan

>  <BAO Label>  (117) 
nan

>  <bits>  (117) 
<rdkit.DataStructs.cDataStructs.ExplicitBitVect object at 0x000002AD6E9B50E0>

>  <Group>  (117) 
G2

$$$$

     RDKit          2D

 37 40  0  0  0  0  0  0  0  0999 V2000
    6.0000   -2.5981    0.0000 C   0  0  0  0  0  0  0  0  0  0  0  0
    5.2500   -1.2990    0.0000 C   0  0  0  0  0  0  0  0  0  0  0  0
    3.7500   -1.2990    0.0000 C   0  0  0  0  0  0  0  0  0  0  0  0
    3.0000    0.0000    0.0000 O   0  0  0  0  0  0  0  0  0  0  0  0
    1.5000    0.0000    0.0000 C   0  0  0  0  0  0  0  0  0  0  0  0
    0.7500   -1.2990    0.0000 C   0  0  0  0  0  0  0  0  0  0  0  0
   -0.7500   -1.2990    0.0000 C   0  0  0  0  0  0  0  0  0  0  0  0
   -1.5000    0.0000    0.0000 C   0  0  0  0  0  0  0  0  0  0  0  0
   -3.0000    0.0000    0.0000 C   0  0  0  0  0  0  0  0  0  0  0  0
   -3.7500    1.2990    0.0000 N   0  0  0  0  0  0  0  0  0  0  0  0
   -5.2500    1.2990    0.0000 N   0  0  0  0  0  0  0  0  0  0  0  0
   -6.0000    2.5981    0.0000 C   0  0  0  0  0  0  0  0  0  0  0  0
   -5.2500    3.8971    0.0000 O   0  0  0  0  0  0  0  0  0  0  0  0
   -7.5000    2.5981    0.0000 C   0  0  0  0  0  0  0  0  0  0  0  0
   -8.2500    3.8971    0.0000 C   0  0  0  0  0  0  0  0  0  0  0  0
   -9.7500    3.8971    0.0000 C   0  0  0  0  0  0  0  0  0  0  0  0
  -10.5000    2.5981    0.0000 C   0  0  0  0  0  0  0  0  0  0  0  0
  -12.0000    2.5981    0.0000 C   0  0  0  0  0  0  0  0  0  0  0  0
  -12.8817    1.3846    0.0000 S   0  0  0  0  0  0  0  0  0  0  0  0
  -14.3083    1.8481    0.0000 C   0  0  0  0  0  0  0  0  0  0  0  0
  -14.3083    3.3481    0.0000 C   0  0  0  0  0  0  0  0  0  0  0  0
  -15.5218    4.2298    0.0000 O   0  0  0  0  0  0  0  0  0  0  0  0
  -12.8817    3.8116    0.0000 N   0  0  0  0  0  0  0  0  0  0  0  0
  -12.4182    5.2382    0.0000 C   0  0  0  0  0  0  0  0  0  0  0  0
  -13.4218    6.3529    0.0000 C   0  0  0  0  0  0  0  0  0  0  0  0
  -12.9583    7.7795    0.0000 C   0  0  0  0  0  0  0  0  0  0  0  0
  -13.9620    8.8942    0.0000 C   0  0  0  0  0  0  0  0  0  0  0  0
  -15.4292    8.5823    0.0000 C   0  0  0  0  0  0  0  0  0  0  0  0
  -15.8928    7.1558    0.0000 C   0  0  0  0  0  0  0  0  0  0  0  0
  -14.8891    6.0410    0.0000 C   0  0  0  0  0  0  0  0  0  0  0  0
   -9.7500    1.2990    0.0000 C   0  0  0  0  0  0  0  0  0  0  0  0
   -8.2500    1.2990    0.0000 C   0  0  0  0  0  0  0  0  0  0  0  0
   -0.7500    1.2990    0.0000 C   0  0  0  0  0  0  0  0  0  0  0  0
    0.7500    1.2990    0.0000 C   0  0  0  0  0  0  0  0  0  0  0  0
    1.5000    2.5981    0.0000 O   0  0  0  0  0  0  0  0  0  0  0  0
    0.7500    3.8971    0.0000 C   0  0  0  0  0  0  0  0  0  0  0  0
    1.5000    5.1962    0.0000 C   0  0  0  0  0  0  0  0  0  0  0  0
  1  2  1  0
  2  3  1  0
  3  4  1  0
  4  5  1  0
  5  6  2  0
  6  7  1  0
  7  8  2  0
  8  9  1  0
  9 10  2  0
 10 11  1  0
 11 12  1  0
 12 13  2  0
 12 14  1  0
 14 15  2  0
 15 16  1  0
 16 17  2  0
 18 17  1  1
 18 19  1  0
 19 20  1  0
 20 21  1  0
 21 22  2  0
 21 23  1  0
 23 24  1  0
 24 25  1  0
 25 26  2  0
 26 27  1  0
 27 28  2  0
 28 29  1  0
 29 30  2  0
 17 31  1  0
 31 32  2  0
  8 33  1  0
 33 34  2  0
 34 35  1  0
 35 36  1  0
 36 37  1  0
 34  5  1  0
 32 14  1  0
 23 18  1  0
 30 25  1  0
M  END
>  <Compound_ID>  (118) 
C08721617

>  <Active>  (118) 
0

>  <Smiles>  (118) 
CCCOc1ccc(/C=N/NC(=O)c2ccc([C@H]3SCC(=O)N3Cc3ccccc3)cc2)cc1OCC

>  <canonical_smi>  (118) 
CCCOc1ccc(/C=N/NC(=O)c2ccc([C@H]3SCC(=O)N3Cc3ccccc3)cc2)cc1OCC

>  <Set>  (118) 
G2 inactive

>  <Set_type>  (118) 
Train

>  <MW>  (118) 
517.65

>  <HBD>  (118) 
1

>  <HBA>  (118) 
5

>  <NRB>  (118) 
11

>  <NR>  (118) 
4

>  <NAR>  (118) 
3

>  <PSA>  (118) 
80.23

>  <Standard Type>  (118) 
nan

>  <Standard Relation>  (118) 
nan

>  <Standard Units>  (118) 
nan

>  <Standard Value>  (118) 
nan

>  <Assay ChEMBL ID>  (118) 
nan

>  <Assay Description>  (118) 
nan

>  <BAO Label>  (118) 
nan

>  <bits>  (118) 
<rdkit.DataStructs.cDataStructs.ExplicitBitVect object at 0x000002AD6E9B5D90>

>  <Group>  (118) 
G2

$$$$

     RDKit          2D

 26 29  0  0  0  0  0  0  0  0999 V2000
   -8.2875    0.8922    0.0000 C   0  0  0  0  0  0  0  0  0  0  0  0
   -6.8542    1.3343    0.0000 C   0  0  0  0  0  0  0  0  0  0  0  0
   -5.6540    0.4346    0.0000 C   0  0  0  0  0  0  0  0  0  0  0  0
   -4.4274    1.2980    0.0000 C   0  0  0  0  0  0  0  0  0  0  0  0
   -3.0311    0.7500    0.0000 C   0  0  0  0  0  0  0  0  0  0  0  0
   -4.2704   -0.0950    0.0000 O   0  0  0  0  0  0  0  0  0  0  0  0
   -3.0311   -0.7500    0.0000 C   0  0  0  0  0  0  0  0  0  0  0  0
   -4.3301   -1.5000    0.0000 C   0  0  0  0  0  0  0  0  0  0  0  0
   -1.7321   -1.5000    0.0000 C   0  0  0  0  0  0  0  0  0  0  0  0
   -1.7321   -3.0000    0.0000 O   0  0  0  0  0  0  0  0  0  0  0  0
   -0.4330   -0.7500    0.0000 C   0  0  0  0  0  0  0  0  0  0  0  0
   -0.6527    0.0163    0.0000 O   0  0  0  0  0  0  0  0  0  0  0  0
   -0.4330    0.7500    0.0000 C   0  0  0  0  0  0  0  0  0  0  0  0
   -1.7321    1.5000    0.0000 C   0  0  0  0  0  0  0  0  0  0  0  0
   -1.5085    2.9832    0.0000 C   0  0  0  0  0  0  0  0  0  0  0  0
   -2.5287    4.0828    0.0000 C   0  0  0  0  0  0  0  0  0  0  0  0
   -1.9807    5.4791    0.0000 C   0  0  0  0  0  0  0  0  0  0  0  0
   -0.4975    5.7027    0.0000 O   0  0  0  0  0  0  0  0  0  0  0  0
   -4.0246    3.9707    0.0000 C   0  0  0  0  0  0  0  0  0  0  0  0
   -4.8695    2.7314    0.0000 C   0  0  0  0  0  0  0  0  0  0  0  0
   -5.5605    4.0627    0.0000 O   0  0  0  0  0  0  0  0  0  0  0  0
   -6.3694    2.7538    0.0000 C   0  0  0  0  0  0  0  0  0  0  0  0
   -7.2328    3.9804    0.0000 O   0  0  0  0  0  0  0  0  0  0  0  0
    0.8660    0.0000    0.0000 C   0  0  0  0  0  0  0  0  0  0  0  0
    1.8302    1.1491    0.0000 C   0  0  0  0  0  0  0  0  0  0  0  0
    1.8302   -1.1491    0.0000 C   0  0  0  0  0  0  0  0  0  0  0  0
  1  2  1  0
  2  3  2  0
  4  3  1  1
  4  5  1  0
  5  6  1  6
  5  7  1  0
  7  8  1  1
  7  9  1  0
  9 10  1  6
  9 11  1  0
 11 12  1  6
 11 13  1  0
 13 14  1  0
 14 15  1  6
 15 16  2  0
 16 17  1  0
 17 18  1  0
 16 19  1  0
 19 20  1  0
 20 21  1  1
 20 22  1  0
 22 23  2  0
 13 24  1  1
 24 25  1  0
 24 26  1  0
 22  2  1  0
 20  4  1  0
 14  5  1  0
 24 11  1  0
M  END
>  <Compound_ID>  (119) 
C43409572

>  <Active>  (119) 
0

>  <Smiles>  (119) 
CC1=C[C@@H]2[C@]3(O)[C@H](C)[C@@H](O)[C@@]4(O)[C@@H]([C@H]3C=C(CO)C[C@@]2(O)C1=O)C4(C)C

>  <canonical_smi>  (119) 
CC1=C[C@H]2[C@@](O)(CC(CO)=C[C@@H]3[C@H]4C(C)(C)[C@@]4(O)[C@H](O)[C@@H](C)[C@]32O)C1=O

>  <Set>  (119) 
G2 inactive

>  <Set_type>  (119) 
Test

>  <MW>  (119) 
364.44

>  <HBD>  (119) 
5

>  <HBA>  (119) 
6

>  <NRB>  (119) 
1

>  <NR>  (119) 
4

>  <NAR>  (119) 
0

>  <PSA>  (119) 
118.22

>  <Standard Type>  (119) 
nan

>  <Standard Relation>  (119) 
nan

>  <Standard Units>  (119) 
nan

>  <Standard Value>  (119) 
nan

>  <Assay ChEMBL ID>  (119) 
nan

>  <Assay Description>  (119) 
nan

>  <BAO Label>  (119) 
nan

>  <bits>  (119) 
<rdkit.DataStructs.cDataStructs.ExplicitBitVect object at 0x000002AD6E9B62D0>

>  <Group>  (119) 
G2

$$$$

     RDKit          2D

 17 18  0  0  0  0  0  0  0  0999 V2000
    3.0000    0.0000    0.0000 O   0  0  0  0  0  0  0  0  0  0  0  0
    1.5000    0.0000    0.0000 C   0  0  0  0  0  0  0  0  0  0  0  0
    0.7500   -1.2990    0.0000 N   0  0  0  0  0  0  0  0  0  0  0  0
   -0.7500   -1.2990    0.0000 C   0  0  0  0  0  0  0  0  0  0  0  0
   -1.5000   -2.5981    0.0000 O   0  0  0  0  0  1  0  0  0  0  0  0
   -1.5000    0.0000    0.0000 C   0  0  0  0  0  0  0  0  0  0  0  0
   -3.0000    0.0000    0.0000 C   0  0  0  0  0  0  0  0  0  0  0  0
   -3.8817   -1.2135    0.0000 C   0  0  0  0  0  0  0  0  0  0  0  0
   -5.3083   -0.7500    0.0000 C   0  0  0  0  0  0  0  0  0  0  0  0
   -6.5218   -1.6317    0.0000 O   0  0  0  0  0  0  0  0  0  0  0  0
   -5.3083    0.7500    0.0000 C   0  0  0  0  0  0  0  0  0  0  0  0
   -6.5218    1.6317    0.0000 C   0  0  0  0  0  0  0  0  0  0  0  0
   -6.3650    3.1235    0.0000 O   0  0  0  0  0  0  0  0  0  0  0  0
   -3.8817    1.2135    0.0000 O   0  0  0  0  0  0  0  0  0  0  0  0
   -0.7500    1.2990    0.0000 C   0  0  0  0  0  0  0  0  0  0  0  0
    0.7500    1.2990    0.0000 C   0  0  0  0  0  0  0  0  0  0  0  0
    1.5000    2.5981    0.0000 I   0  0  0  0  0  0  0  0  0  0  0  0
  1  2  2  0
  2  3  1  0
  3  4  1  0
  4  5  1  0
  4  6  2  0
  7  6  1  6
  7  8  1  0
  8  9  1  0
  9 10  1  1
  9 11  1  0
 11 12  1  6
 12 13  1  0
 11 14  1  0
  6 15  1  0
 15 16  2  0
 16 17  1  0
 16  2  1  0
 14  7  1  0
M  CHG  1   5  -1
M  END
>  <Compound_ID>  (120) 
C40511723

>  <Active>  (120) 
0

>  <Smiles>  (120) 
O=c1[nH]c([O-])c([C@@H]2C[C@@H](O)[C@H](CO)O2)cc1I

>  <canonical_smi>  (120) 
O=c1[nH]c([O-])c([C@@H]2C[C@@H](O)[C@H](CO)O2)cc1I

>  <Set>  (120) 
G2 inactive

>  <Set_type>  (120) 
Test

>  <MW>  (120) 
352.1

>  <HBD>  (120) 
3

>  <HBA>  (120) 
5

>  <NRB>  (120) 
2

>  <NR>  (120) 
2

>  <NAR>  (120) 
1

>  <PSA>  (120) 
105.61

>  <Standard Type>  (120) 
nan

>  <Standard Relation>  (120) 
nan

>  <Standard Units>  (120) 
nan

>  <Standard Value>  (120) 
nan

>  <Assay ChEMBL ID>  (120) 
nan

>  <Assay Description>  (120) 
nan

>  <BAO Label>  (120) 
nan

>  <bits>  (120) 
<rdkit.DataStructs.cDataStructs.ExplicitBitVect object at 0x000002AD6E9B6B20>

>  <Group>  (120) 
G2

$$$$

     RDKit          2D

 20 21  0  0  0  0  0  0  0  0999 V2000
   -1.0409   -8.3049    0.0000 H   0  0  0  0  0  0  0  0  0  0  0  0
   -0.5773   -6.8783    0.0000 N   0  0  0  0  0  0  0  0  0  0  0  0
    0.8899   -6.5665    0.0000 C   0  0  0  0  0  0  0  0  0  0  0  0
    2.0046   -7.5702    0.0000 N   0  0  0  0  0  0  0  0  0  0  0  0
    3.3037   -6.8202    0.0000 N   0  0  0  0  0  0  0  0  0  0  0  0
    2.9918   -5.3529    0.0000 C   0  0  0  0  0  0  0  0  0  0  0  0
    3.9955   -4.2382    0.0000 N   0  0  0  0  0  0  0  0  0  0  0  0
    3.5320   -2.8116    0.0000 H   0  0  0  0  0  0  0  0  0  0  0  0
    1.5000   -5.1962    0.0000 C   0  0  0  0  0  0  0  0  0  0  0  0
    0.7500   -3.8971    0.0000 N   0  0  0  0  0  0  0  0  0  0  0  0
    1.5000   -2.5981    0.0000 N   0  0  0  0  0  0  0  0  0  0  0  0
    0.7500   -1.2990    0.0000 C   0  0  0  0  0  0  0  0  0  0  0  0
    1.5000    0.0000    0.0000 C   0  0  0  0  0  0  0  0  0  0  0  0
    3.0000    0.0000    0.0000 Cl  0  0  0  0  0  0  0  0  0  0  0  0
    0.7500    1.2990    0.0000 C   0  0  0  0  0  0  0  0  0  0  0  0
   -0.7500    1.2990    0.0000 C   0  0  0  0  0  0  0  0  0  0  0  0
   -1.5000    2.5981    0.0000 Cl  0  0  0  0  0  0  0  0  0  0  0  0
   -1.5000    0.0000    0.0000 C   0  0  0  0  0  0  0  0  0  0  0  0
   -0.7500   -1.2990    0.0000 C   0  0  0  0  0  0  0  0  0  0  0  0
   -1.5000   -2.5981    0.0000 Cl  0  0  0  0  0  0  0  0  0  0  0  0
  1  2  1  0
  2  3  2  0
  3  4  1  0
  4  5  1  0
  5  6  1  0
  6  7  2  0
  7  8  1  0
  6  9  1  0
  9 10  2  3
 10 11  1  0
 11 12  1  0
 12 13  2  0
 13 14  1  0
 13 15  1  0
 15 16  2  0
 16 17  1  0
 16 18  1  0
 18 19  2  0
 19 20  1  0
  9  3  1  0
 19 12  1  0
M  END
>  <Compound_ID>  (121) 
C06057203

>  <Active>  (121) 
0

>  <Smiles>  (121) 
[H]/N=C1\NN/C(=N/[H])C1=NNc1c(Cl)cc(Cl)cc1Cl

>  <canonical_smi>  (121) 
[H]/N=C1\NN/C(=N/[H])C1=NNc1c(Cl)cc(Cl)cc1Cl

>  <Set>  (121) 
G2 inactive

>  <Set_type>  (121) 
Test

>  <MW>  (121) 
305.56

>  <HBD>  (121) 
5

>  <HBA>  (121) 
3

>  <NRB>  (121) 
2

>  <NR>  (121) 
2

>  <NAR>  (121) 
1

>  <PSA>  (121) 
96.15

>  <Standard Type>  (121) 
nan

>  <Standard Relation>  (121) 
nan

>  <Standard Units>  (121) 
nan

>  <Standard Value>  (121) 
nan

>  <Assay ChEMBL ID>  (121) 
nan

>  <Assay Description>  (121) 
nan

>  <BAO Label>  (121) 
nan

>  <bits>  (121) 
<rdkit.DataStructs.cDataStructs.ExplicitBitVect object at 0x000002AD6E9B77D0>

>  <Group>  (121) 
G2

$$$$

     RDKit          2D

 24 25  0  0  0  0  0  0  0  0999 V2000
    6.0000    2.5981    0.0000 C   0  0  0  0  0  0  0  0  0  0  0  0
    5.2500    1.2990    0.0000 C   0  0  0  0  0  0  0  0  0  0  0  0
    3.7500    1.2990    0.0000 C   0  0  0  0  0  0  0  0  0  0  0  0
    3.0000    0.0000    0.0000 C   0  0  0  0  0  0  0  0  0  0  0  0
    1.5000    0.0000    0.0000 C   0  0  0  0  0  0  0  0  0  0  0  0
    0.7500   -1.2990    0.0000 C   0  0  0  0  0  0  0  0  0  0  0  0
    2.2500   -1.2990    0.0000 C   0  0  0  0  0  0  0  0  0  0  0  0
    1.5000   -2.5981    0.0000 C   0  0  0  0  0  0  0  0  0  0  0  0
    0.7500   -3.8971    0.0000 C   0  0  0  0  0  0  0  0  0  0  0  0
   -0.7500   -3.8971    0.0000 C   0  0  0  0  0  0  0  0  0  0  0  0
   -1.5000   -5.1962    0.0000 O   0  0  0  0  0  0  0  0  0  0  0  0
   -1.5000   -2.5981    0.0000 C   0  0  0  0  0  0  0  0  0  0  0  0
   -2.6491   -1.6339    0.0000 C   0  0  0  0  0  0  0  0  0  0  0  0
   -2.6491   -3.5623    0.0000 C   0  0  0  0  0  0  0  0  0  0  0  0
   -0.7500   -1.2990    0.0000 C   0  0  0  0  0  0  0  0  0  0  0  0
   -1.5000    0.0000    0.0000 C   0  0  0  0  0  0  0  0  0  0  0  0
   -0.7500    1.2990    0.0000 C   0  0  0  0  0  0  0  0  0  0  0  0
    0.7500    1.2990    0.0000 C   0  0  0  0  0  0  0  0  0  0  0  0
    0.4895    2.7762    0.0000 C   0  0  0  0  0  0  0  0  0  0  0  0
    2.1595    1.8121    0.0000 O   0  0  0  0  0  0  0  0  0  0  0  0
    6.0000    0.0000    0.0000 C   0  0  0  0  0  0  0  0  0  0  0  0
    5.2500   -1.2990    0.0000 O   0  0  0  0  0  0  0  0  0  0  0  0
    7.5000    0.0000    0.0000 C   0  0  0  0  0  0  0  0  0  0  0  0
    8.2500   -1.2990    0.0000 O   0  0  0  0  0  0  0  0  0  0  0  0
  1  2  2  0
  2  3  1  0
  3  4  1  0
  5  4  1  1
  5  6  1  0
  6  7  1  1
  6  8  1  0
  8  9  1  0
  9 10  1  0
 10 11  1  6
 10 12  1  0
 12 13  1  0
 12 14  1  0
 12 15  1  0
 15 16  1  6
 16 17  1  0
 17 18  1  0
 18 19  1  6
 18 20  1  0
  2 21  1  0
 21 22  1  6
 21 23  1  0
 23 24  1  0
 18  5  1  0
 15  6  1  0
M  END
>  <Compound_ID>  (122) 
C31155636

>  <Active>  (122) 
0

>  <Smiles>  (122) 
C=C(CC[C@H]1[C@]2(C)CC[C@H](O)C(C)(C)[C@@H]2CC[C@@]1(C)O)[C@@H](O)CO

>  <canonical_smi>  (122) 
C=C(CC[C@@H]1[C@](C)(O)CC[C@H]2C(C)(C)[C@@H](O)CC[C@@]12C)[C@@H](O)CO

>  <Set>  (122) 
G2 inactive

>  <Set_type>  (122) 
Test

>  <MW>  (122) 
340.5

>  <HBD>  (122) 
4

>  <HBA>  (122) 
4

>  <NRB>  (122) 
5

>  <NR>  (122) 
2

>  <NAR>  (122) 
0

>  <PSA>  (122) 
80.92

>  <Standard Type>  (122) 
nan

>  <Standard Relation>  (122) 
nan

>  <Standard Units>  (122) 
nan

>  <Standard Value>  (122) 
nan

>  <Assay ChEMBL ID>  (122) 
nan

>  <Assay Description>  (122) 
nan

>  <BAO Label>  (122) 
nan

>  <bits>  (122) 
<rdkit.DataStructs.cDataStructs.ExplicitBitVect object at 0x000002AD6E9B7990>

>  <Group>  (122) 
G2

$$$$

     RDKit          2D

 19 20  0  0  0  0  0  0  0  0999 V2000
    3.7500    1.2990    0.0000 O   0  0  0  0  0  0  0  0  0  0  0  0
    3.0000    0.0000    0.0000 C   0  0  0  0  0  0  0  0  0  0  0  0
    3.7500   -1.2990    0.0000 O   0  0  0  0  0  1  0  0  0  0  0  0
    1.5000    0.0000    0.0000 C   0  0  0  0  0  0  0  0  0  0  0  0
    0.7500   -1.2990    0.0000 C   0  0  0  0  0  0  0  0  0  0  0  0
   -0.7500   -1.2990    0.0000 C   0  0  0  0  0  0  0  0  0  0  0  0
   -1.5000    0.0000    0.0000 C   0  0  0  0  0  0  0  0  0  0  0  0
   -0.7500    1.2990    0.0000 C   0  0  0  0  0  0  0  0  0  0  0  0
   -1.5000    2.5981    0.0000 Br  0  0  0  0  0  0  0  0  0  0  0  0
    0.7500    1.2990    0.0000 C   0  0  0  0  0  0  0  0  0  0  0  0
    1.5000    2.5981    0.0000 N   0  0  0  0  0  0  0  0  0  0  0  0
    0.7500    3.8971    0.0000 C   0  0  0  0  0  0  0  0  0  0  0  0
   -0.7500    3.8971    0.0000 O   0  0  0  0  0  0  0  0  0  0  0  0
    1.5000    5.1962    0.0000 C   0  0  0  0  0  0  0  0  0  0  0  0
    0.8899    6.5665    0.0000 C   0  0  0  0  0  0  0  0  0  0  0  0
    2.0046    7.5702    0.0000 C   0  0  0  0  0  0  0  0  0  0  0  0
    1.8478    9.0619    0.0000 O   0  0  0  0  0  0  0  0  0  0  0  0
    3.3037    6.8202    0.0000 C   0  0  0  0  0  0  0  0  0  0  0  0
    2.9918    5.3529    0.0000 N   0  0  0  0  0  4  0  0  0  0  0  0
  1  2  2  0
  2  3  1  0
  2  4  1  0
  4  5  2  0
  5  6  1  0
  6  7  2  0
  7  8  1  0
  8  9  1  0
  8 10  2  0
 10 11  1  0
 11 12  1  0
 12 13  2  0
 14 12  1  1
 14 15  1  0
 15 16  1  0
 16 17  1  6
 16 18  1  0
 18 19  1  0
 10  4  1  0
 19 14  1  0
M  CHG  2   3  -1  19   1
M  END
>  <Compound_ID>  (123) 
C62826894

>  <Active>  (123) 
0

>  <Smiles>  (123) 
O=C([O-])c1cccc(Br)c1NC(=O)[C@H]1C[C@H](O)C[NH2+]1

>  <canonical_smi>  (123) 
O=C([O-])c1cccc(Br)c1NC(=O)[C@H]1C[C@H](O)C[NH2+]1

>  <Set>  (123) 
G2 inactive

>  <Set_type>  (123) 
Test

>  <MW>  (123) 
329.15

>  <HBD>  (123) 
3

>  <HBA>  (123) 
4

>  <NRB>  (123) 
3

>  <NR>  (123) 
2

>  <NAR>  (123) 
1

>  <PSA>  (123) 
106.07

>  <Standard Type>  (123) 
nan

>  <Standard Relation>  (123) 
nan

>  <Standard Units>  (123) 
nan

>  <Standard Value>  (123) 
nan

>  <Assay ChEMBL ID>  (123) 
nan

>  <Assay Description>  (123) 
nan

>  <BAO Label>  (123) 
nan

>  <bits>  (123) 
<rdkit.DataStructs.cDataStructs.ExplicitBitVect object at 0x000002AD6E9B7D80>

>  <Group>  (123) 
G2

$$$$

     RDKit          2D

 17 19  0  0  0  0  0  0  0  0999 V2000
    0.0000   -5.1073    0.0000 C   0  0  0  0  0  0  0  0  0  0  0  0
   -0.0000   -3.6073    0.0000 N   0  0  0  0  0  0  0  0  0  0  0  0
   -1.2135   -2.7256    0.0000 N   0  0  0  0  0  0  0  0  0  0  0  0
   -0.7500   -1.2990    0.0000 C   0  0  0  0  0  0  0  0  0  0  0  0
    0.7500   -1.2990    0.0000 C   0  0  0  0  0  0  0  0  0  0  0  0
    1.2135   -2.7256    0.0000 C   0  0  0  0  0  0  0  0  0  0  0  0
    2.6401   -3.1891    0.0000 C   0  0  0  0  0  0  0  0  0  0  0  0
    3.8536   -2.3075    0.0000 N   0  0  0  0  0  0  0  0  0  0  0  0
    5.0672   -3.1891    0.0000 N   0  0  0  0  0  0  0  0  0  0  0  0
    4.6036   -4.6157    0.0000 C   0  0  0  0  0  0  0  0  0  0  0  0
    5.4853   -5.8293    0.0000 S   0  0  0  0  0  1  0  0  0  0  0  0
    3.1036   -4.6157    0.0000 N   0  0  0  0  0  0  0  0  0  0  0  0
    2.2220   -5.8293    0.0000 N   0  0  0  0  0  0  0  0  0  0  0  0
    1.5000    0.0000    0.0000 C   0  0  0  0  0  0  0  0  0  0  0  0
    0.7500    1.2990    0.0000 C   0  0  0  0  0  0  0  0  0  0  0  0
   -0.7500    1.2990    0.0000 C   0  0  0  0  0  0  0  0  0  0  0  0
   -1.5000    0.0000    0.0000 C   0  0  0  0  0  0  0  0  0  0  0  0
  1  2  1  0
  2  3  1  0
  3  4  2  0
  4  5  1  0
  5  6  2  0
  6  7  1  0
  7  8  2  0
  8  9  1  0
  9 10  2  0
 10 11  1  0
 10 12  1  0
 12 13  1  0
  5 14  1  0
 14 15  1  0
 15 16  1  0
 16 17  1  0
  6  2  1  0
 12  7  1  0
 17  4  1  0
M  CHG  1  11  -1
M  END
>  <Compound_ID>  (124) 
C06557156

>  <Active>  (124) 
0

>  <Smiles>  (124) 
Cn1nc2c(c1-c1nnc([S-])n1N)CCCC2

>  <canonical_smi>  (124) 
Cn1nc2c(c1-c1nnc([S-])n1N)CCCC2

>  <Set>  (124) 
G2 inactive

>  <Set_type>  (124) 
Test

>  <MW>  (124) 
249.32

>  <HBD>  (124) 
1

>  <HBA>  (124) 
5

>  <NRB>  (124) 
1

>  <NR>  (124) 
3

>  <NAR>  (124) 
2

>  <PSA>  (124) 
74.55

>  <Standard Type>  (124) 
nan

>  <Standard Relation>  (124) 
nan

>  <Standard Units>  (124) 
nan

>  <Standard Value>  (124) 
nan

>  <Assay ChEMBL ID>  (124) 
nan

>  <Assay Description>  (124) 
nan

>  <BAO Label>  (124) 
nan

>  <bits>  (124) 
<rdkit.DataStructs.cDataStructs.ExplicitBitVect object at 0x000002AD6E9B7D10>

>  <Group>  (124) 
G2

$$$$

     RDKit          2D

 10 11  0  0  0  0  0  0  0  0999 V2000
    1.5000    0.0000    0.0000 C   0  0  0  0  0  0  0  0  0  0  0  0
    0.7500   -1.2990    0.0000 C   0  0  0  0  0  0  0  0  0  0  0  0
   -0.7500   -1.2990    0.0000 C   0  0  0  0  0  0  0  0  0  0  0  0
   -1.5000    0.0000    0.0000 C   0  0  0  0  0  0  0  0  0  0  0  0
   -3.0000    0.0000    0.0000 O   0  0  0  0  0  0  0  0  0  0  0  0
   -3.7500    1.2990    0.0000 C   0  0  0  0  0  0  0  0  0  0  0  0
   -3.0000    2.5981    0.0000 O   0  0  0  0  0  0  0  0  0  0  0  0
   -1.5000    2.5981    0.0000 C   0  0  0  0  0  0  0  0  0  0  0  0
   -0.7500    1.2990    0.0000 C   0  0  0  0  0  0  0  0  0  0  0  0
    0.7500    1.2990    0.0000 C   0  0  0  0  0  0  0  0  0  0  0  0
  1  2  1  0
  2  3  1  0
  4  3  1  6
  4  5  1  0
  5  6  1  0
  6  7  1  0
  7  8  1  0
  9  8  1  1
  9 10  1  0
 10  1  1  0
  9  4  1  0
M  END
>  <Compound_ID>  (125) 
C00397831

>  <Active>  (125) 
0

>  <Smiles>  (125) 
C1CC[C@@H]2OCOC[C@H]2C1

>  <canonical_smi>  (125) 
C1CC[C@@H]2COCO[C@H]2C1

>  <Set>  (125) 
G2 inactive

>  <Set_type>  (125) 
Test

>  <MW>  (125) 
142.2

>  <HBD>  (125) 
0

>  <HBA>  (125) 
2

>  <NRB>  (125) 
0

>  <NR>  (125) 
2

>  <NAR>  (125) 
0

>  <PSA>  (125) 
18.46

>  <Standard Type>  (125) 
nan

>  <Standard Relation>  (125) 
nan

>  <Standard Units>  (125) 
nan

>  <Standard Value>  (125) 
nan

>  <Assay ChEMBL ID>  (125) 
nan

>  <Assay Description>  (125) 
nan

>  <BAO Label>  (125) 
nan

>  <bits>  (125) 
<rdkit.DataStructs.cDataStructs.ExplicitBitVect object at 0x000002AD6E9B7C30>

>  <Group>  (125) 
G2

$$$$

     RDKit          2D

 16 17  0  0  0  0  0  0  0  0999 V2000
    2.8863   -8.7837    0.0000 O   0  0  0  0  0  0  0  0  0  0  0  0
    2.0046   -7.5702    0.0000 S   0  0  0  0  0  0  0  0  0  0  0  0
    0.8899   -8.5739    0.0000 O   0  0  0  0  0  0  0  0  0  0  0  0
    3.3037   -6.8202    0.0000 C   0  0  0  0  0  0  0  0  0  0  0  0
    2.9918   -5.3529    0.0000 C   0  0  0  0  0  0  0  0  0  0  0  0
    3.9955   -4.2382    0.0000 Cl  0  0  0  0  0  0  0  0  0  0  0  0
    1.5000   -5.1962    0.0000 C   0  0  0  0  0  0  0  0  0  0  0  0
    0.7500   -3.8971    0.0000 N   0  0  0  0  0  0  0  0  0  0  0  0
    1.5000   -2.5981    0.0000 C   0  0  0  0  0  0  0  0  0  0  0  0
    0.7500   -1.2990    0.0000 C   0  0  0  0  0  0  0  0  0  0  0  0
    1.5000    0.0000    0.0000 C   0  0  0  0  0  0  0  0  0  0  0  0
    0.7500    1.2990    0.0000 C   0  0  0  0  0  0  0  0  0  0  0  0
   -0.7500    1.2990    0.0000 N   0  0  0  0  0  0  0  0  0  0  0  0
   -1.5000    0.0000    0.0000 C   0  0  0  0  0  0  0  0  0  0  0  0
   -0.7500   -1.2990    0.0000 C   0  0  0  0  0  0  0  0  0  0  0  0
    0.8899   -6.5665    0.0000 C   0  0  0  0  0  0  0  0  0  0  0  0
  1  2  2  0
  2  3  2  0
  2  4  1  0
  4  5  1  0
  5  6  1  6
  5  7  1  0
  7  8  1  1
  8  9  2  0
  9 10  1  0
 10 11  2  0
 11 12  1  0
 12 13  2  0
 13 14  1  0
 14 15  2  0
  7 16  1  0
 16  2  1  0
 15 10  1  0
M  END
>  <Compound_ID>  (126) 
C05906222

>  <Active>  (126) 
0

>  <Smiles>  (126) 
O=S1(=O)C[C@@H](Cl)[C@H](/N=C/c2ccncc2)C1

>  <canonical_smi>  (126) 
O=S1(=O)C[C@@H](Cl)[C@H](/N=C/c2ccncc2)C1

>  <Set>  (126) 
G2 inactive

>  <Set_type>  (126) 
Test

>  <MW>  (126) 
258.73

>  <HBD>  (126) 
0

>  <HBA>  (126) 
3

>  <NRB>  (126) 
2

>  <NR>  (126) 
2

>  <NAR>  (126) 
1

>  <PSA>  (126) 
59.39

>  <Standard Type>  (126) 
nan

>  <Standard Relation>  (126) 
nan

>  <Standard Units>  (126) 
nan

>  <Standard Value>  (126) 
nan

>  <Assay ChEMBL ID>  (126) 
nan

>  <Assay Description>  (126) 
nan

>  <BAO Label>  (126) 
nan

>  <bits>  (126) 
<rdkit.DataStructs.cDataStructs.ExplicitBitVect object at 0x000002AD6E9B7ED0>

>  <Group>  (126) 
G2

$$$$

     RDKit          2D

 38 43  0  0  0  0  0  0  0  0999 V2000
    3.7500   -1.2990    0.0000 C   0  0  0  0  0  0  0  0  0  0  0  0
    3.0000    0.0000    0.0000 O   0  0  0  0  0  0  0  0  0  0  0  0
    1.5000    0.0000    0.0000 C   0  0  0  0  0  0  0  0  0  0  0  0
    0.7500   -1.2990    0.0000 C   0  0  0  0  0  0  0  0  0  0  0  0
   -0.7500   -1.2990    0.0000 C   0  0  0  0  0  0  0  0  0  0  0  0
   -1.5000    0.0000    0.0000 C   0  0  0  0  0  0  0  0  0  0  0  0
   -0.7500    1.2990    0.0000 C   0  0  0  0  0  0  0  0  0  0  0  0
    0.7500    1.2990    0.0000 C   0  0  0  0  0  0  0  0  0  0  0  0
   -1.7537    2.4138    0.0000 C   0  0  0  0  0  0  0  0  0  0  0  0
   -1.5969    3.9055    0.0000 C   0  0  0  0  0  0  0  0  0  0  0  0
   -2.8104    4.7872    0.0000 C   0  0  0  0  0  0  0  0  0  0  0  0
   -4.1807    4.1771    0.0000 N   0  0  0  0  0  0  0  0  0  0  0  0
   -4.3375    2.6853    0.0000 C   0  0  0  0  0  0  0  0  0  0  0  0
   -5.7079    2.0752    0.0000 C   0  0  0  0  0  0  0  0  0  0  0  0
   -6.9214    2.9569    0.0000 C   0  0  0  0  0  0  0  0  0  0  0  0
   -6.7646    4.4487    0.0000 O   0  0  0  0  0  0  0  0  0  0  0  0
   -8.2917    2.3468    0.0000 N   0  0  0  0  0  0  0  0  0  0  0  0
   -9.5052    3.2285    0.0000 C   0  0  0  0  0  0  0  0  0  0  0  0
   -9.3484    4.7203    0.0000 C   0  0  0  0  0  0  0  0  0  0  0  0
  -10.5620    5.6019    0.0000 C   0  0  0  0  0  0  0  0  0  0  0  0
  -11.9323    4.9918    0.0000 C   0  0  0  0  0  0  0  0  0  0  0  0
  -13.1458    5.8735    0.0000 C   0  0  0  0  0  0  0  0  0  0  0  0
  -12.0891    3.5000    0.0000 C   0  0  0  0  0  0  0  0  0  0  0  0
  -10.8755    2.6184    0.0000 C   0  0  0  0  0  0  0  0  0  0  0  0
   -8.4485    0.8550    0.0000 C   0  0  0  0  0  0  0  0  0  0  0  0
   -9.8188    0.2449    0.0000 O   0  0  0  0  0  0  0  0  0  0  0  0
   -7.2350   -0.0267    0.0000 N   0  0  0  0  0  0  0  0  0  0  0  0
   -7.3918   -1.5184    0.0000 C   0  0  0  0  0  0  0  0  0  0  0  0
   -8.7621   -2.1286    0.0000 C   0  0  0  0  0  0  0  0  0  0  0  0
   -8.9189   -3.6203    0.0000 C   0  0  0  0  0  0  0  0  0  0  0  0
   -7.7053   -4.5020    0.0000 C   0  0  0  0  0  0  0  0  0  0  0  0
   -7.8621   -5.9938    0.0000 C   0  0  0  0  0  0  0  0  0  0  0  0
   -6.3350   -3.8919    0.0000 C   0  0  0  0  0  0  0  0  0  0  0  0
   -6.1782   -2.4001    0.0000 C   0  0  0  0  0  0  0  0  0  0  0  0
   -5.8647    0.5834    0.0000 C   0  0  0  0  0  0  0  0  0  0  0  0
   -4.6511   -0.2982    0.0000 O   0  0  0  0  0  0  0  0  0  0  0  0
   -3.1240    1.8037    0.0000 C   0  0  0  0  0  0  0  0  0  0  0  0
   -2.9672    0.3119    0.0000 N   0  0  0  0  0  4  0  0  0  0  0  0
  1  2  1  0
  2  3  1  0
  3  4  1  0
  4  5  2  0
  5  6  1  0
  6  7  1  0
  7  8  1  0
  7  9  2  0
  9 10  1  0
 10 11  1  0
 11 12  1  0
 13 12  1  1
 13 14  1  0
 14 15  1  1
 15 16  2  0
 15 17  1  0
 17 18  1  0
 18 19  2  0
 19 20  1  0
 20 21  2  0
 21 22  1  0
 21 23  1  0
 23 24  2  0
 17 25  1  0
 25 26  2  0
 25 27  1  0
 27 28  1  0
 28 29  2  0
 29 30  1  0
 30 31  2  0
 31 32  1  0
 31 33  1  0
 33 34  2  0
 27 35  1  0
 35 36  1  1
 13 37  1  0
 37 38  1  6
  8  3  2  0
 37  9  1  0
 38  6  2  0
 35 14  1  0
 24 18  1  0
 34 28  1  0
M  CHG  1  38   1
M  END
>  <Compound_ID>  (127) 
C63374365

>  <Active>  (127) 
0

>  <Smiles>  (127) 
COc1ccc2c(c1)=C1CCN[C@H]([C@@H]3C(=O)N(c4ccc(C)cc4)C(=O)N(c4ccc(C)cc4)[C@@H]3O)[C@H]1[NH+]=2

>  <canonical_smi>  (127) 
COc1ccc2c(c1)=C1CCN[C@H]([C@@H]3C(=O)N(c4ccc(C)cc4)C(=O)N(c4ccc(C)cc4)[C@@H]3O)[C@H]1[NH+]=2

>  <Set>  (127) 
G2 inactive

>  <Set_type>  (127) 
Test

>  <MW>  (127) 
511.6

>  <HBD>  (127) 
3

>  <HBA>  (127) 
5

>  <NRB>  (127) 
4

>  <NR>  (127) 
6

>  <NAR>  (127) 
3

>  <PSA>  (127) 
96.08

>  <Standard Type>  (127) 
nan

>  <Standard Relation>  (127) 
nan

>  <Standard Units>  (127) 
nan

>  <Standard Value>  (127) 
nan

>  <Assay ChEMBL ID>  (127) 
nan

>  <Assay Description>  (127) 
nan

>  <BAO Label>  (127) 
nan

>  <bits>  (127) 
<rdkit.DataStructs.cDataStructs.ExplicitBitVect object at 0x000002AD6E9B4C80>

>  <Group>  (127) 
G2

$$$$

     RDKit          2D

 30 34  0  0  0  0  0  0  0  0999 V2000
   -1.4638    6.6700    0.0000 O   0  0  0  0  0  0  0  0  0  0  0  0
   -0.8537    8.0403    0.0000 C   0  0  0  0  0  0  0  0  0  0  0  0
   -1.7354    9.2539    0.0000 C   0  0  0  0  0  0  0  0  0  0  0  0
   -1.1253   10.6242    0.0000 C   0  0  0  0  0  0  0  0  0  0  0  0
   -2.0070   11.8377    0.0000 C   0  0  0  0  0  0  0  0  0  0  0  0
   -3.4987   11.6809    0.0000 C   0  0  0  0  0  0  0  0  0  0  0  0
   -4.1088   10.3106    0.0000 C   0  0  0  0  0  0  0  0  0  0  0  0
   -3.2272    9.0971    0.0000 C   0  0  0  0  0  0  0  0  0  0  0  0
    0.6381    8.1971    0.0000 N   0  0  0  0  0  0  0  0  0  0  0  0
    1.3881    9.4962    0.0000 N   0  0  0  0  0  0  0  0  0  0  0  0
    2.8553    9.1843    0.0000 C   0  0  0  0  0  0  0  0  0  0  0  0
    3.9700   10.1880    0.0000 C   0  0  0  0  0  0  0  0  0  0  0  0
    5.3966    9.7245    0.0000 C   0  0  0  0  0  0  0  0  0  0  0  0
    6.5113   10.7282    0.0000 C   0  0  0  0  0  0  0  0  0  0  0  0
    6.1994   12.1954    0.0000 C   0  0  0  0  0  0  0  0  0  0  0  0
    4.7729   12.6589    0.0000 N   0  0  0  0  0  0  0  0  0  0  0  0
    3.6581   11.6552    0.0000 C   0  0  0  0  0  0  0  0  0  0  0  0
    3.0121    7.6925    0.0000 N   0  0  0  0  0  0  0  0  0  0  0  0
    1.6418    7.0824    0.0000 C   0  0  0  0  0  0  0  0  0  0  0  0
    1.3299    5.6152    0.0000 N   0  0  0  0  0  4  0  0  0  0  0  0
   -0.0967    5.1517    0.0000 C   0  0  0  0  0  0  0  0  0  0  0  0
   -0.4086    3.6844    0.0000 C   0  0  0  0  0  0  0  0  0  0  0  0
    0.7062    2.6807    0.0000 C   0  0  0  0  0  0  0  0  0  0  0  0
    0.3943    1.2135    0.0000 C   0  0  0  0  0  0  0  0  0  0  0  0
    1.2760    0.0000    0.0000 C   0  0  0  0  0  0  0  0  0  0  0  0
    0.3943   -1.2135    0.0000 C   0  0  0  0  0  0  0  0  0  0  0  0
   -1.0323   -0.7500    0.0000 N   0  0  0  0  0  0  0  0  0  0  0  0
   -1.0323    0.7500    0.0000 C   0  0  0  0  0  0  0  0  0  0  0  0
   -2.1470    1.7537    0.0000 C   0  0  0  0  0  0  0  0  0  0  0  0
   -1.8351    3.2209    0.0000 C   0  0  0  0  0  0  0  0  0  0  0  0
  1  2  2  0
  2  3  1  0
  3  4  2  0
  4  5  1  0
  5  6  2  0
  6  7  1  0
  7  8  2  0
  2  9  1  0
  9 10  1  0
 10 11  1  0
 11 12  1  1
 12 13  2  0
 13 14  1  0
 14 15  2  0
 15 16  1  0
 16 17  2  0
 11 18  1  0
 18 19  1  0
 19 20  1  6
 20 21  1  0
 21 22  1  0
 22 23  2  0
 23 24  1  0
 24 25  2  0
 25 26  1  0
 26 27  2  0
 27 28  1  0
 28 29  1  6
 29 30  2  0
  8  3  1  0
 19  9  1  0
 30 22  1  0
 17 12  1  0
 28 24  1  0
M  CHG  1  20   1
M  END
>  <Compound_ID>  (128) 
C38576868

>  <Active>  (128) 
0

>  <Smiles>  (128) 
O=C(c1ccccc1)N1N[C@@H](c2cccnc2)N[C@@H]1[NH2+]CC1=CC2=CC=N[C@@H]2C=C1

>  <canonical_smi>  (128) 
O=C(c1ccccc1)N1N[C@@H](c2cccnc2)N[C@@H]1[NH2+]CC1=CC2=CC=N[C@@H]2C=C1

>  <Set>  (128) 
G2 inactive

>  <Set_type>  (128) 
Test

>  <MW>  (128) 
399.48

>  <HBD>  (128) 
3

>  <HBA>  (128) 
4

>  <NRB>  (128) 
5

>  <NR>  (128) 
5

>  <NAR>  (128) 
2

>  <PSA>  (128) 
86.23

>  <Standard Type>  (128) 
nan

>  <Standard Relation>  (128) 
nan

>  <Standard Units>  (128) 
nan

>  <Standard Value>  (128) 
nan

>  <Assay ChEMBL ID>  (128) 
nan

>  <Assay Description>  (128) 
nan

>  <BAO Label>  (128) 
nan

>  <bits>  (128) 
<rdkit.DataStructs.cDataStructs.ExplicitBitVect object at 0x000002AD6E9B4CF0>

>  <Group>  (128) 
G2

$$$$

     RDKit          2D

 25 26  0  0  0  0  0  0  0  0999 V2000
    4.4315    3.4734    0.0000 C   0  0  0  0  0  0  0  0  0  0  0  0
    3.4962    2.3006    0.0000 C   0  0  0  0  0  0  0  0  0  0  0  0
    4.0442    0.9043    0.0000 C   0  0  0  0  0  0  0  0  0  0  0  0
    2.0130    2.5242    0.0000 C   0  0  0  0  0  0  0  0  0  0  0  0
    1.4650    3.9205    0.0000 C   0  0  0  0  0  0  0  0  0  0  0  0
    2.4002    5.0933    0.0000 N   0  0  0  0  0  0  0  0  0  0  0  0
    1.8522    6.4896    0.0000 C   0  0  0  0  0  0  0  0  0  0  0  0
    0.3689    6.7131    0.0000 O   0  0  0  0  0  0  0  0  0  0  0  0
    2.7874    7.6623    0.0000 N   0  0  0  0  0  0  0  0  0  0  0  0
    2.2394    9.0586    0.0000 N   0  0  0  0  0  0  0  0  0  0  0  0
    3.1747   10.2314    0.0000 C   0  0  0  0  0  0  0  0  0  0  0  0
    4.2432    9.1787    0.0000 C   0  0  0  0  0  0  0  0  0  0  0  0
    4.3333   11.1840    0.0000 C   0  0  0  0  0  0  0  0  0  0  0  0
    3.7853   12.5804    0.0000 C   0  0  0  0  0  0  0  0  0  0  0  0
    2.2880   12.4907    0.0000 S   0  0  0  0  0  0  0  0  0  0  0  0
    2.3552   13.9891    0.0000 O   0  0  0  0  0  0  0  0  0  0  0  0
    0.8047   12.7142    0.0000 O   0  0  0  0  0  0  0  0  0  0  0  0
    1.9106   11.0389    0.0000 C   0  0  0  0  0  0  0  0  0  0  0  0
    1.0777    1.3515    0.0000 N   0  0  0  0  0  4  0  0  0  0  0  0
    1.7286    0.0000    0.0000 C   0  0  0  0  0  0  0  0  0  0  0  0
    1.0777   -1.3515    0.0000 C   0  0  0  0  0  0  0  0  0  0  0  0
   -0.3846   -1.6852    0.0000 C   0  0  0  0  0  0  0  0  0  0  0  0
   -1.5574   -0.7500    0.0000 C   0  0  0  0  0  0  0  0  0  0  0  0
   -1.5574    0.7500    0.0000 C   0  0  0  0  0  0  0  0  0  0  0  0
   -0.3846    1.6852    0.0000 C   0  0  0  0  0  0  0  0  0  0  0  0
  1  2  1  0
  2  3  1  0
  2  4  1  0
  4  5  1  6
  5  6  1  0
  6  7  1  0
  7  8  2  0
  7  9  1  0
  9 10  1  0
 10 11  1  0
 11 12  1  6
 11 13  1  0
 13 14  1  0
 14 15  1  0
 15 16  2  0
 15 17  2  0
 15 18  1  0
  4 19  1  0
 19 20  1  0
 20 21  1  0
 21 22  1  0
 22 23  1  0
 23 24  1  0
 24 25  1  0
 18 11  1  0
 25 19  1  0
M  CHG  1  19   1
M  END
>  <Compound_ID>  (129) 
C45534277

>  <Active>  (129) 
0

>  <Smiles>  (129) 
CC(C)[C@@H](CNC(=O)NN[C@]1(C)CCS(=O)(=O)C1)[NH+]1CCCCCC1

>  <canonical_smi>  (129) 
CC(C)[C@@H](CNC(=O)NN[C@]1(C)CCS(=O)(=O)C1)[NH+]1CCCCCC1

>  <Set>  (129) 
G2 inactive

>  <Set_type>  (129) 
Test

>  <MW>  (129) 
375.56

>  <HBD>  (129) 
4

>  <HBA>  (129) 
4

>  <NRB>  (129) 
6

>  <NR>  (129) 
2

>  <NAR>  (129) 
0

>  <PSA>  (129) 
91.74

>  <Standard Type>  (129) 
nan

>  <Standard Relation>  (129) 
nan

>  <Standard Units>  (129) 
nan

>  <Standard Value>  (129) 
nan

>  <Assay ChEMBL ID>  (129) 
nan

>  <Assay Description>  (129) 
nan

>  <BAO Label>  (129) 
nan

>  <bits>  (129) 
<rdkit.DataStructs.cDataStructs.ExplicitBitVect object at 0x000002AD6E9B4E40>

>  <Group>  (129) 
G2

$$$$

     RDKit          2D

 34 37  0  0  0  0  0  0  0  0999 V2000
   -6.0000   -0.0000    0.0000 C   0  0  0  0  0  0  0  0  0  0  0  0
   -5.2500   -1.2990    0.0000 C   0  0  0  0  0  0  0  0  0  0  0  0
   -3.7500   -1.2990    0.0000 C   0  0  0  0  0  0  0  0  0  0  0  0
   -3.0000   -2.5981    0.0000 C   0  0  0  0  0  0  0  0  0  0  0  0
   -1.5000   -2.5981    0.0000 N   0  0  0  0  0  0  0  0  0  0  0  0
   -0.7500   -3.8971    0.0000 C   0  0  0  0  0  0  0  0  0  0  0  0
   -1.5000   -5.1962    0.0000 O   0  0  0  0  0  0  0  0  0  0  0  0
    0.7500   -3.8971    0.0000 C   0  0  0  0  0  0  0  0  0  0  0  0
    1.5000   -5.1962    0.0000 C   0  0  0  0  0  0  0  0  0  0  0  0
    0.7500   -6.4952    0.0000 C   0  0  0  0  0  0  0  0  0  0  0  0
    1.5000   -7.7942    0.0000 C   0  0  0  0  0  0  0  0  0  0  0  0
    3.0000   -7.7942    0.0000 O   0  0  0  0  0  0  0  0  0  0  0  0
    0.7500   -9.0933    0.0000 O   0  0  0  0  0  0  0  0  0  0  0  0
    1.5000  -10.3923    0.0000 C   0  0  0  0  0  0  0  0  0  0  0  0
    0.7500  -11.6913    0.0000 C   0  0  0  0  0  0  0  0  0  0  0  0
    3.0000  -10.3923    0.0000 C   0  0  0  0  0  0  0  0  0  0  0  0
    3.7500  -11.6913    0.0000 N   0  0  0  0  0  0  0  0  0  0  0  0
    5.2500  -11.6913    0.0000 C   0  0  0  0  0  0  0  0  0  0  0  0
    6.2537  -12.8061    0.0000 S   0  0  0  0  0  0  0  0  0  0  0  0
    7.6240  -12.1960    0.0000 C   0  0  0  0  0  0  0  0  0  0  0  0
    8.9231  -12.9460    0.0000 C   0  0  0  0  0  0  0  0  0  0  0  0
    7.4672  -10.7042    0.0000 C   0  0  0  0  0  0  0  0  0  0  0  0
    8.5819   -9.7005    0.0000 C   0  0  0  0  0  0  0  0  0  0  0  0
    6.0000  -10.3923    0.0000 C   0  0  0  0  0  0  0  0  0  0  0  0
    5.2500   -9.0933    0.0000 C   0  0  0  0  0  0  0  0  0  0  0  0
    6.0000   -7.7942    0.0000 O   0  0  0  0  0  0  0  0  0  0  0  0
    3.7500   -9.0933    0.0000 N   0  0  0  0  0  0  0  0  0  0  0  0
    1.5000   -2.5981    0.0000 N   0  0  0  0  0  0  0  0  0  0  0  0
    0.7500   -1.2990    0.0000 C   0  0  0  0  0  0  0  0  0  0  0  0
    1.5000    0.0000    0.0000 C   0  0  0  0  0  0  0  0  0  0  0  0
    0.7500    1.2990    0.0000 C   0  0  0  0  0  0  0  0  0  0  0  0
   -0.7500    1.2990    0.0000 C   0  0  0  0  0  0  0  0  0  0  0  0
   -1.5000    0.0000    0.0000 C   0  0  0  0  0  0  0  0  0  0  0  0
   -0.7500   -1.2990    0.0000 C   0  0  0  0  0  0  0  0  0  0  0  0
  1  2  1  0
  2  3  1  0
  3  4  1  0
  4  5  1  0
  5  6  1  0
  6  7  2  0
  6  8  1  0
  8  9  1  0
  9 10  1  0
 10 11  1  0
 11 12  2  0
 11 13  1  0
 13 14  1  0
 14 15  1  6
 14 16  1  0
 16 17  2  0
 17 18  1  0
 18 19  1  0
 19 20  1  0
 20 21  1  0
 20 22  2  0
 22 23  1  0
 22 24  1  0
 24 25  1  0
 25 26  2  0
 25 27  1  0
  8 28  2  0
 28 29  1  0
 29 30  2  0
 30 31  1  0
 31 32  2  0
 32 33  1  0
 33 34  2  0
 34  5  1  0
 27 16  1  0
 34 29  1  0
 24 18  2  0
M  END
>  <Compound_ID>  (130) 
C11590150

>  <Active>  (130) 
0

>  <Smiles>  (130) 
CCCCn1c(=O)c(CCC(=O)O[C@@H](C)c2nc3sc(C)c(C)c3c(=O)[nH]2)nc2ccccc21

>  <canonical_smi>  (130) 
CCCCn1c(=O)c(CCC(=O)O[C@@H](C)c2nc3sc(C)c(C)c3c(=O)[nH]2)nc2ccccc21

>  <Set>  (130) 
G2 inactive

>  <Set_type>  (130) 
Test

>  <MW>  (130) 
480.59

>  <HBD>  (130) 
1

>  <HBA>  (130) 
6

>  <NRB>  (130) 
8

>  <NR>  (130) 
4

>  <NAR>  (130) 
4

>  <PSA>  (130) 
106.94

>  <Standard Type>  (130) 
nan

>  <Standard Relation>  (130) 
nan

>  <Standard Units>  (130) 
nan

>  <Standard Value>  (130) 
nan

>  <Assay ChEMBL ID>  (130) 
nan

>  <Assay Description>  (130) 
nan

>  <BAO Label>  (130) 
nan

>  <bits>  (130) 
<rdkit.DataStructs.cDataStructs.ExplicitBitVect object at 0x000002AD6E9B5CB0>

>  <Group>  (130) 
G2

$$$$

     RDKit          2D

 23 26  0  0  0  0  0  0  0  0999 V2000
   -4.0819    0.6918    0.0000 C   0  0  0  0  0  0  0  0  0  0  0  0
   -2.9672   -0.3119    0.0000 N   0  0  0  0  0  0  0  0  0  0  0  0
   -3.1240   -1.8037    0.0000 C   0  0  0  0  0  0  0  0  0  0  0  0
   -4.4231   -2.5537    0.0000 C   0  0  0  0  0  0  0  0  0  0  0  0
   -5.7221   -1.8037    0.0000 C   0  0  0  0  0  0  0  0  0  0  0  0
   -7.0211   -2.5537    0.0000 C   0  0  0  0  0  0  0  0  0  0  0  0
   -7.0211   -4.0537    0.0000 C   0  0  0  0  0  0  0  0  0  0  0  0
   -5.7221   -4.8037    0.0000 C   0  0  0  0  0  0  0  0  0  0  0  0
   -4.4231   -4.0537    0.0000 C   0  0  0  0  0  0  0  0  0  0  0  0
   -1.7537   -2.4138    0.0000 N   0  0  0  0  0  0  0  0  0  0  0  0
   -0.7500   -1.2990    0.0000 C   0  0  0  0  0  0  0  0  0  0  0  0
    0.7500   -1.2990    0.0000 C   0  0  0  0  0  0  0  0  0  0  0  0
    1.5000   -2.5981    0.0000 C   0  0  0  0  0  0  0  0  0  0  0  0
    0.7500   -3.8971    0.0000 C   0  0  0  0  0  0  0  0  0  0  0  0
    1.5000   -5.1962    0.0000 C   0  0  0  0  0  0  0  0  0  0  0  0
    3.0000   -5.1962    0.0000 C   0  0  0  0  0  0  0  0  0  0  0  0
    3.7500   -6.4952    0.0000 F   0  0  0  0  0  0  0  0  0  0  0  0
    3.7500   -3.8971    0.0000 C   0  0  0  0  0  0  0  0  0  0  0  0
    3.0000   -2.5981    0.0000 C   0  0  0  0  0  0  0  0  0  0  0  0
    1.5000    0.0000    0.0000 N   0  0  0  0  0  0  0  0  0  0  0  0
    0.7500    1.2990    0.0000 C   0  0  0  0  0  0  0  0  0  0  0  0
   -0.7500    1.2990    0.0000 N   0  0  0  0  0  0  0  0  0  0  0  0
   -1.5000    0.0000    0.0000 C   0  0  0  0  0  0  0  0  0  0  0  0
  1  2  1  0
  2  3  1  0
  3  4  1  0
  4  5  2  0
  5  6  1  0
  6  7  2  0
  7  8  1  0
  8  9  2  0
  3 10  2  0
 10 11  1  0
 11 12  2  0
 12 13  1  0
 13 14  2  0
 14 15  1  0
 15 16  2  0
 16 17  1  0
 16 18  1  0
 18 19  2  0
 12 20  1  0
 20 21  2  0
 21 22  1  0
 22 23  2  0
 23  2  1  0
  9  4  1  0
 23 11  1  0
 19 13  1  0
M  END
>  <Compound_ID>  (131) 
CHEMBL368896

>  <Active>  (131) 
0

>  <Smiles>  (131) 
Cn1c(-c2ccccc2)nc2c(-c3ccc(F)cc3)ncnc21

>  <canonical_smi>  (131) 
Cn1c(-c2ccccc2)nc2c(-c3ccc(F)cc3)ncnc21

>  <Set>  (131) 
G2 inactive

>  <Set_type>  (131) 
External

>  <MW>  (131) 
304.33

>  <HBD>  (131) 
0

>  <HBA>  (131) 
3

>  <NRB>  (131) 
2

>  <NR>  (131) 
4

>  <NAR>  (131) 
4

>  <PSA>  (131) 
43.6

>  <Standard Type>  (131) 
Inhibition

>  <Standard Relation>  (131) 
'='

>  <Standard Units>  (131) 
%

>  <Standard Value>  (131) 
5.0

>  <Assay ChEMBL ID>  (131) 
CHEMBL830657

>  <Assay Description>  (131) 
Inhibition of human Mitogen activated protein kinase kinase 1 (MEK1) at 30 uM

>  <BAO Label>  (131) 
single protein format

>  <bits>  (131) 
<rdkit.DataStructs.cDataStructs.ExplicitBitVect object at 0x000002AD6E9B6960>

>  <Group>  (131) 
G2

$$$$

     RDKit          2D

 22 24  0  0  0  0  0  0  0  0999 V2000
   -6.1170   -7.0506    0.0000 C   0  0  0  0  0  0  0  0  0  0  0  0
   -4.6904   -6.5871    0.0000 C   0  0  0  0  0  0  0  0  0  0  0  0
   -4.3786   -5.1199    0.0000 C   0  0  0  0  0  0  0  0  0  0  0  0
   -2.9520   -4.6564    0.0000 C   0  0  0  0  0  0  0  0  0  0  0  0
   -1.8373   -5.6601    0.0000 O   0  0  0  0  0  0  0  0  0  0  0  0
   -2.6401   -3.1891    0.0000 N   0  0  0  0  0  0  0  0  0  0  0  0
   -1.2135   -2.7256    0.0000 C   0  0  0  0  0  0  0  0  0  0  0  0
   -0.0000   -3.6073    0.0000 N   0  0  0  0  0  0  0  0  0  0  0  0
    1.2135   -2.7256    0.0000 N   0  0  0  0  0  0  0  0  0  0  0  0
    0.7500   -1.2990    0.0000 C   0  0  0  0  0  0  0  0  0  0  0  0
    1.5000    0.0000    0.0000 N   0  0  0  0  0  0  0  0  0  0  0  0
    0.7500    1.2990    0.0000 C   0  0  0  0  0  0  0  0  0  0  0  0
   -0.7500    1.2990    0.0000 C   0  0  0  0  0  0  0  0  0  0  0  0
   -1.5000    2.5981    0.0000 C   0  0  0  0  0  0  0  0  0  0  0  0
   -0.7500    3.8971    0.0000 C   0  0  0  0  0  0  0  0  0  0  0  0
   -1.5000    5.1962    0.0000 C   0  0  0  0  0  0  0  0  0  0  0  0
   -3.0000    5.1962    0.0000 C   0  0  0  0  0  0  0  0  0  0  0  0
   -3.7500    3.8971    0.0000 C   0  0  0  0  0  0  0  0  0  0  0  0
   -3.0000    2.5981    0.0000 C   0  0  0  0  0  0  0  0  0  0  0  0
   -3.7500    1.2990    0.0000 F   0  0  0  0  0  0  0  0  0  0  0  0
   -1.5000    0.0000    0.0000 C   0  0  0  0  0  0  0  0  0  0  0  0
   -0.7500   -1.2990    0.0000 C   0  0  0  0  0  0  0  0  0  0  0  0
  1  2  1  0
  2  3  1  0
  3  4  1  0
  4  5  2  0
  4  6  1  0
  6  7  1  0
  7  8  2  0
  8  9  1  0
  9 10  1  0
 10 11  2  0
 11 12  1  0
 12 13  2  0
 13 14  1  0
 14 15  2  0
 15 16  1  0
 16 17  2  0
 17 18  1  0
 18 19  2  0
 19 20  1  0
 13 21  1  0
 21 22  2  0
 22  7  1  0
 22 10  1  0
 19 14  1  0
M  END
>  <Compound_ID>  (132) 
CHEMBL407373

>  <Active>  (132) 
0

>  <Smiles>  (132) 
CCCC(=O)Nc1n[nH]c2ncc(-c3ccccc3F)cc12

>  <canonical_smi>  (132) 
CCCC(=O)Nc1n[nH]c2ncc(-c3ccccc3F)cc12

>  <Set>  (132) 
G2 inactive

>  <Set_type>  (132) 
External

>  <MW>  (132) 
298.32

>  <HBD>  (132) 
2

>  <HBA>  (132) 
3

>  <NRB>  (132) 
4

>  <NR>  (132) 
3

>  <NAR>  (132) 
3

>  <PSA>  (132) 
70.67

>  <Standard Type>  (132) 
Inhibition

>  <Standard Relation>  (132) 
'='

>  <Standard Units>  (132) 
%

>  <Standard Value>  (132) 
7.0

>  <Assay ChEMBL ID>  (132) 
CHEMBL734035

>  <Assay Description>  (132) 
Inhibition of MEK1 in presence of 10 uM ATP

>  <BAO Label>  (132) 
single protein format

>  <bits>  (132) 
<rdkit.DataStructs.cDataStructs.ExplicitBitVect object at 0x000002AD6E9B51C0>

>  <Group>  (132) 
G2

$$$$

     RDKit          2D

 44 48  0  0  0  0  0  0  0  0999 V2000
    3.7500   -1.2990    0.0000 C   0  0  0  0  0  0  0  0  0  0  0  0
    3.0000    0.0000    0.0000 O   0  0  0  0  0  0  0  0  0  0  0  0
    1.5000    0.0000    0.0000 C   0  0  0  0  0  0  0  0  0  0  0  0
    0.7500   -1.2990    0.0000 C   0  0  0  0  0  0  0  0  0  0  0  0
   -0.7500   -1.2990    0.0000 C   0  0  0  0  0  0  0  0  0  0  0  0
   -1.5000    0.0000    0.0000 C   0  0  0  0  0  0  0  0  0  0  0  0
   -3.0000    0.0000    0.0000 C   0  0  0  0  0  0  0  0  0  0  0  0
   -3.8817   -1.2135    0.0000 N   0  0  0  0  0  0  0  0  0  0  0  0
   -5.3083   -0.7500    0.0000 N   0  0  0  0  0  0  0  0  0  0  0  0
   -6.5218   -1.6317    0.0000 C   0  0  0  0  0  0  0  0  0  0  0  0
   -7.8921   -1.0216    0.0000 C   0  0  0  0  0  0  0  0  0  0  0  0
   -9.1056   -1.9033    0.0000 C   0  0  0  0  0  0  0  0  0  0  0  0
   -8.9488   -3.3950    0.0000 C   0  0  0  0  0  0  0  0  0  0  0  0
   -7.5785   -4.0051    0.0000 C   0  0  0  0  0  0  0  0  0  0  0  0
   -7.4217   -5.4969    0.0000 N   0  0  0  0  0  0  0  0  0  0  0  0
   -8.6353   -6.3786    0.0000 C   0  0  0  0  0  0  0  0  0  0  0  0
  -10.0056   -5.7685    0.0000 O   0  0  0  0  0  0  0  0  0  0  0  0
   -8.4785   -7.8704    0.0000 N   0  0  0  0  0  0  0  0  0  0  0  0
   -9.6920   -8.7521    0.0000 C   0  0  0  0  0  0  0  0  0  0  0  0
  -11.0623   -8.1420    0.0000 C   0  0  0  0  0  0  0  0  0  0  0  0
  -12.2758   -9.0236    0.0000 C   0  0  0  0  0  0  0  0  0  0  0  0
  -13.6461   -8.4135    0.0000 C   0  0  0  0  0  0  0  0  0  0  0  0
  -15.0165   -7.8034    0.0000 F   0  0  0  0  0  0  0  0  0  0  0  0
  -13.0360   -7.0432    0.0000 F   0  0  0  0  0  0  0  0  0  0  0  0
  -14.2563   -9.7838    0.0000 F   0  0  0  0  0  0  0  0  0  0  0  0
  -12.1190  -10.5154    0.0000 C   0  0  0  0  0  0  0  0  0  0  0  0
  -10.7487  -11.1255    0.0000 C   0  0  0  0  0  0  0  0  0  0  0  0
  -10.5919  -12.6173    0.0000 C   0  0  0  0  0  0  0  0  0  0  0  0
  -10.4351  -14.1091    0.0000 F   0  0  0  0  0  0  0  0  0  0  0  0
  -12.0837  -12.7741    0.0000 F   0  0  0  0  0  0  0  0  0  0  0  0
   -9.1001  -12.4605    0.0000 F   0  0  0  0  0  0  0  0  0  0  0  0
   -9.5352  -10.2438    0.0000 C   0  0  0  0  0  0  0  0  0  0  0  0
   -6.3650   -3.1235    0.0000 C   0  0  0  0  0  0  0  0  0  0  0  0
   -5.3083    0.7500    0.0000 C   0  0  0  0  0  0  0  0  0  0  0  0
   -3.8817    1.2135    0.0000 C   0  0  0  0  0  0  0  0  0  0  0  0
   -3.4182    2.6401    0.0000 C   0  0  0  0  0  0  0  0  0  0  0  0
   -1.9509    2.9520    0.0000 C   0  0  0  0  0  0  0  0  0  0  0  0
   -1.4874    4.3786    0.0000 C   0  0  0  0  0  0  0  0  0  0  0  0
   -2.4911    5.4933    0.0000 N   0  0  0  0  0  0  0  0  0  0  0  0
   -3.9583    5.1814    0.0000 C   0  0  0  0  0  0  0  0  0  0  0  0
   -4.4218    3.7548    0.0000 C   0  0  0  0  0  0  0  0  0  0  0  0
   -0.7500    1.2990    0.0000 C   0  0  0  0  0  0  0  0  0  0  0  0
    0.7500    1.2990    0.0000 C   0  0  0  0  0  0  0  0  0  0  0  0
    1.5000    2.5981    0.0000 Cl  0  0  0  0  0  0  0  0  0  0  0  0
  1  2  1  0
  2  3  1  0
  3  4  2  0
  4  5  1  0
  5  6  2  0
  6  7  1  0
  7  8  2  0
  8  9  1  0
  9 10  1  0
 10 11  2  0
 11 12  1  0
 12 13  2  0
 13 14  1  0
 14 15  1  0
 15 16  1  0
 16 17  2  0
 16 18  1  0
 18 19  1  0
 19 20  2  0
 20 21  1  0
 21 22  1  0
 22 23  1  0
 22 24  1  0
 22 25  1  0
 21 26  2  0
 26 27  1  0
 27 28  1  0
 28 29  1  0
 28 30  1  0
 28 31  1  0
 27 32  2  0
 14 33  2  0
  9 34  1  0
 34 35  2  0
 35 36  1  0
 36 37  2  0
 37 38  1  0
 38 39  2  0
 39 40  1  0
 40 41  2  0
  6 42  1  0
 42 43  2  0
 43 44  1  0
 43  3  1  0
 35  7  1  0
 41 36  1  0
 33 10  1  0
 32 19  1  0
M  END
>  <Compound_ID>  (133) 
CHEMBL4559825

>  <Active>  (133) 
0

>  <Smiles>  (133) 
COc1ccc(-c2nn(-c3cccc(NC(=O)Nc4cc(C(F)(F)F)cc(C(F)(F)F)c4)c3)cc2-c2ccncc2)cc1Cl

>  <canonical_smi>  (133) 
COc1ccc(-c2nn(-c3cccc(NC(=O)Nc4cc(C(F)(F)F)cc(C(F)(F)F)c4)c3)cc2-c2ccncc2)cc1Cl

>  <Set>  (133) 
G2 inactive

>  <Set_type>  (133) 
External

>  <MW>  (133) 
631.96

>  <HBD>  (133) 
2

>  <HBA>  (133) 
4

>  <NRB>  (133) 
6

>  <NR>  (133) 
5

>  <NAR>  (133) 
5

>  <PSA>  (133) 
81.07

>  <Standard Type>  (133) 
Inhibition

>  <Standard Relation>  (133) 
'='

>  <Standard Units>  (133) 
%

>  <Standard Value>  (133) 
-4.12

>  <Assay ChEMBL ID>  (133) 
CHEMBL4313428

>  <Assay Description>  (133) 
Inhibition of human MEK1 at 10 uM using ERK2 as substrate by [gamma-33P]-ATP assay relative to control

>  <BAO Label>  (133) 
single protein format

>  <bits>  (133) 
<rdkit.DataStructs.cDataStructs.ExplicitBitVect object at 0x000002AD6E9B6AB0>

>  <Group>  (133) 
G2

$$$$

     RDKit          2D

 14 14  0  0  0  0  0  0  0  0999 V2000
    7.2760   -2.5981    0.0000 C   0  0  0  0  0  0  0  0  0  0  0  0
    5.7760   -2.5981    0.0000 C   0  0  0  0  0  0  0  0  0  0  0  0
    5.0260   -1.2990    0.0000 O   0  0  0  0  0  0  0  0  0  0  0  0
    3.5260   -1.2990    0.0000 C   0  0  0  0  0  0  0  0  0  0  0  0
    2.7760   -2.5981    0.0000 O   0  0  0  0  0  0  0  0  0  0  0  0
    2.7760    0.0000    0.0000 C   0  0  0  0  0  0  0  0  0  0  0  0
    1.2760    0.0000    0.0000 N   0  0  0  0  0  0  0  0  0  0  0  0
    0.3943    1.2135    0.0000 C   0  0  0  0  0  0  0  0  0  0  0  0
    0.8578    2.6401    0.0000 O   0  0  0  0  0  0  0  0  0  0  0  0
   -1.0323    0.7500    0.0000 S   0  0  0  0  0  0  0  0  0  0  0  0
   -1.0323   -0.7500    0.0000 N   0  0  0  0  0  0  0  0  0  0  0  0
   -2.2458   -1.6317    0.0000 C   0  0  0  0  0  0  0  0  0  0  0  0
    0.3943   -1.2135    0.0000 C   0  0  0  0  0  0  0  0  0  0  0  0
    0.8578   -2.6401    0.0000 O   0  0  0  0  0  0  0  0  0  0  0  0
  1  2  1  0
  2  3  1  0
  3  4  1  0
  4  5  2  0
  4  6  1  0
  6  7  1  0
  7  8  1  0
  8  9  2  0
  8 10  1  0
 10 11  1  0
 11 12  1  0
 11 13  1  0
 13 14  2  0
 13  7  1  0
M  END
>  <Compound_ID>  (134) 
CHEMBL388088

>  <Active>  (134) 
0

>  <Smiles>  (134) 
CCOC(=O)Cn1c(=O)sn(C)c1=O

>  <canonical_smi>  (134) 
CCOC(=O)Cn1c(=O)sn(C)c1=O

>  <Set>  (134) 
G2 inactive

>  <Set_type>  (134) 
External

>  <MW>  (134) 
218.23

>  <HBD>  (134) 
0

>  <HBA>  (134) 
4

>  <NRB>  (134) 
3

>  <NR>  (134) 
1

>  <NAR>  (134) 
1

>  <PSA>  (134) 
70.3

>  <Standard Type>  (134) 
Inhibition

>  <Standard Relation>  (134) 
'='

>  <Standard Units>  (134) 
%

>  <Standard Value>  (134) 
19.0

>  <Assay ChEMBL ID>  (134) 
CHEMBL920009

>  <Assay Description>  (134) 
Inhibition of MEK1K at 10 uM

>  <BAO Label>  (134) 
single protein format

>  <bits>  (134) 
<rdkit.DataStructs.cDataStructs.ExplicitBitVect object at 0x000002AD6E9B6E30>

>  <Group>  (134) 
G2

$$$$

     RDKit          2D

 16 18  0  0  0  0  0  0  0  0999 V2000
   -3.5757   -7.5908    0.0000 C   0  0  0  0  0  0  0  0  0  0  0  0
   -4.6904   -6.5871    0.0000 C   0  0  0  0  0  0  0  0  0  0  0  0
   -4.3786   -5.1199    0.0000 C   0  0  0  0  0  0  0  0  0  0  0  0
   -2.9520   -4.6564    0.0000 C   0  0  0  0  0  0  0  0  0  0  0  0
   -2.6401   -3.1891    0.0000 C   0  0  0  0  0  0  0  0  0  0  0  0
   -1.2135   -2.7256    0.0000 N   0  0  0  0  0  4  0  0  0  0  0  0
   -0.0000   -3.6073    0.0000 C   0  0  0  0  0  0  0  0  0  0  0  0
    1.2135   -2.7256    0.0000 N   0  0  0  0  0  0  0  0  0  0  0  0
    0.7500   -1.2990    0.0000 C   0  0  0  0  0  0  0  0  0  0  0  0
    1.5000    0.0000    0.0000 N   0  0  0  0  0  0  0  0  0  0  0  0
    0.7500    1.2990    0.0000 C   0  0  0  0  0  0  0  0  0  0  0  0
   -0.7500    1.2990    0.0000 N   0  0  0  0  0  0  0  0  0  0  0  0
   -1.5000    0.0000    0.0000 C   0  0  0  0  0  0  0  0  0  0  0  0
   -0.7500   -1.2990    0.0000 C   0  0  0  0  0  0  0  0  0  0  0  0
   -1.8373   -5.6601    0.0000 C   0  0  0  0  0  0  0  0  0  0  0  0
   -2.1491   -7.1273    0.0000 C   0  0  0  0  0  0  0  0  0  0  0  0
  1  2  2  0
  2  3  1  0
  3  4  2  0
  4  5  1  0
  5  6  1  0
  6  7  2  0
  7  8  1  0
  8  9  1  0
  9 10  2  0
 10 11  1  0
 11 12  2  0
 12 13  1  0
 13 14  2  0
  4 15  1  0
 15 16  2  0
 16  1  1  0
 14  6  1  0
 14  9  1  0
M  CHG  1   6   1
M  END
>  <Compound_ID>  (135) 
CHEMBL369622

>  <Active>  (135) 
0

>  <Smiles>  (135) 
c1ccc(C[n+]2c[nH]c3ncncc32)cc1

>  <canonical_smi>  (135) 
c1ccc(C[n+]2c[nH]c3ncncc32)cc1

>  <Set>  (135) 
G2 inactive

>  <Set_type>  (135) 
External

>  <MW>  (135) 
211.25

>  <HBD>  (135) 
1

>  <HBA>  (135) 
2

>  <NRB>  (135) 
2

>  <NR>  (135) 
3

>  <NAR>  (135) 
3

>  <PSA>  (135) 
45.45

>  <Standard Type>  (135) 
Inhibition

>  <Standard Relation>  (135) 
'='

>  <Standard Units>  (135) 
%

>  <Standard Value>  (135) 
4.0

>  <Assay ChEMBL ID>  (135) 
CHEMBL830657

>  <Assay Description>  (135) 
Inhibition of human Mitogen activated protein kinase kinase 1 (MEK1) at 30 uM

>  <BAO Label>  (135) 
single protein format

>  <bits>  (135) 
<rdkit.DataStructs.cDataStructs.ExplicitBitVect object at 0x000002AD6E9B7840>

>  <Group>  (135) 
G2

$$$$

     RDKit          2D

 31 34  0  0  0  0  0  0  0  0999 V2000
   -3.0000   -2.5981    0.0000 C   0  0  0  0  0  0  0  0  0  0  0  0
   -1.5000   -2.5981    0.0000 C   0  0  0  0  0  0  0  0  0  0  0  0
   -0.7500   -3.8971    0.0000 C   0  0  0  0  0  0  0  0  0  0  0  0
    0.7500   -3.8971    0.0000 C   0  0  0  0  0  0  0  0  0  0  0  0
    1.5000   -5.1962    0.0000 O   0  0  0  0  0  0  0  0  0  0  0  0
    1.5000   -2.5981    0.0000 O   0  0  0  0  0  0  0  0  0  0  0  0
    0.7500   -1.2990    0.0000 C   0  0  0  0  0  0  0  0  0  0  0  0
    1.5000    0.0000    0.0000 C   0  0  0  0  0  0  0  0  0  0  0  0
    0.7500    1.2990    0.0000 C   0  0  0  0  0  0  0  0  0  0  0  0
    1.5000    2.5981    0.0000 N   0  0  0  0  0  0  0  0  0  0  0  0
    3.0000    2.5981    0.0000 C   0  0  0  0  0  0  0  0  0  0  0  0
    3.7500    3.8971    0.0000 C   0  0  0  0  0  0  0  0  0  0  0  0
    5.2500    3.8971    0.0000 O   0  0  0  0  0  0  0  0  0  0  0  0
    6.0000    5.1962    0.0000 C   0  0  0  0  0  0  0  0  0  0  0  0
    5.3899    6.5665    0.0000 N   0  0  0  0  0  0  0  0  0  0  0  0
    6.5046    7.5702    0.0000 O   0  0  0  0  0  0  0  0  0  0  0  0
    7.8037    6.8202    0.0000 N   0  0  0  0  0  4  0  0  0  0  0  0
    9.1740    7.4303    0.0000 O   0  0  0  0  0  1  0  0  0  0  0  0
    7.4918    5.3529    0.0000 C   0  0  0  0  0  0  0  0  0  0  0  0
    8.4955    4.2382    0.0000 S   0  0  0  0  0  0  0  0  0  0  0  0
    9.6102    5.2419    0.0000 O   0  0  0  0  0  0  0  0  0  0  0  0
    7.3808    3.2345    0.0000 O   0  0  0  0  0  0  0  0  0  0  0  0
    9.4992    3.1235    0.0000 C   0  0  0  0  0  0  0  0  0  0  0  0
    9.0356    1.6969    0.0000 C   0  0  0  0  0  0  0  0  0  0  0  0
   10.0393    0.5822    0.0000 C   0  0  0  0  0  0  0  0  0  0  0  0
   11.5066    0.8941    0.0000 C   0  0  0  0  0  0  0  0  0  0  0  0
   11.9701    2.3207    0.0000 C   0  0  0  0  0  0  0  0  0  0  0  0
   10.9664    3.4354    0.0000 C   0  0  0  0  0  0  0  0  0  0  0  0
   -0.7500    1.2990    0.0000 C   0  0  0  0  0  0  0  0  0  0  0  0
   -1.5000    0.0000    0.0000 C   0  0  0  0  0  0  0  0  0  0  0  0
   -0.7500   -1.2990    0.0000 C   0  0  0  0  0  0  0  0  0  0  0  0
  1  2  1  0
  2  3  2  0
  3  4  1  0
  4  5  2  0
  4  6  1  0
  6  7  1  0
  7  8  2  0
  8  9  1  0
  9 10  1  0
 10 11  1  0
 11 12  1  0
 12 13  1  0
 13 14  1  0
 14 15  2  0
 15 16  1  0
 16 17  1  0
 17 18  1  0
 17 19  2  0
 19 20  1  0
 20 21  2  0
 20 22  2  0
 20 23  1  0
 23 24  2  0
 24 25  1  0
 25 26  2  0
 26 27  1  0
 27 28  2  0
  9 29  2  0
 29 30  1  0
 30 31  2  0
 31  2  1  0
 31  7  1  0
 19 14  1  0
 28 23  1  0
M  CHG  2  17   1  18  -1
M  END
>  <Compound_ID>  (136) 
CHEMBL3359125

>  <Active>  (136) 
0

>  <Smiles>  (136) 
Cc1cc(=O)oc2cc(NCCOc3no[n+]([O-])c3S(=O)(=O)c3ccccc3)ccc12

>  <canonical_smi>  (136) 
Cc1cc(=O)oc2cc(NCCOc3no[n+]([O-])c3S(=O)(=O)c3ccccc3)ccc12

>  <Set>  (136) 
G2 inactive

>  <Set_type>  (136) 
External

>  <MW>  (136) 
443.44

>  <HBD>  (136) 
1

>  <HBA>  (136) 
9

>  <NRB>  (136) 
7

>  <NR>  (136) 
4

>  <NAR>  (136) 
4

>  <PSA>  (136) 
138.58

>  <Standard Type>  (136) 
Inhibition

>  <Standard Relation>  (136) 
'='

>  <Standard Units>  (136) 
%

>  <Standard Value>  (136) 
5.7

>  <Assay ChEMBL ID>  (136) 
CHEMBL3381908

>  <Assay Description>  (136) 
Inhibition of MEK-1 (unknown origin) at 5 uM after 120 mins by mobility shift assay

>  <BAO Label>  (136) 
single protein format

>  <bits>  (136) 
<rdkit.DataStructs.cDataStructs.ExplicitBitVect object at 0x000002AD6E9B78B0>

>  <Group>  (136) 
G2

$$$$

     RDKit          2D

 32 33  0  0  0  0  0  0  0  0999 V2000
    5.2500   -1.2990    0.0000 C   0  0  0  0  0  0  0  0  0  0  0  0
    3.7500   -1.2990    0.0000 C   0  0  0  0  0  0  0  0  0  0  0  0
    3.0000   -2.5981    0.0000 O   0  0  0  0  0  0  0  0  0  0  0  0
    3.0000    0.0000    0.0000 N   0  0  0  0  0  0  0  0  0  0  0  0
    1.5000    0.0000    0.0000 C   0  0  0  0  0  0  0  0  0  0  0  0
    0.7500   -1.2990    0.0000 C   0  0  0  0  0  0  0  0  0  0  0  0
   -0.7500   -1.2990    0.0000 C   0  0  0  0  0  0  0  0  0  0  0  0
   -1.5000    0.0000    0.0000 C   0  0  0  0  0  0  0  0  0  0  0  0
   -3.0000    0.0000    0.0000 S   0  0  0  0  0  0  0  0  0  0  0  0
   -3.7500    1.2990    0.0000 C   0  0  0  0  0  0  0  0  0  0  0  0
   -3.0000    2.5981    0.0000 N   0  0  0  0  0  0  0  0  0  0  0  0
   -5.2500    1.2990    0.0000 C   0  0  0  0  0  0  0  0  0  0  0  0
   -6.0000   -0.0000    0.0000 C   0  0  0  0  0  0  0  0  0  0  0  0
   -6.7500   -1.2990    0.0000 N   0  0  0  0  0  0  0  0  0  0  0  0
   -6.0000    2.5981    0.0000 C   0  0  0  0  0  0  0  0  0  0  0  0
   -5.2500    3.8971    0.0000 C   0  0  0  0  0  0  0  0  0  0  0  0
   -4.5000    5.1962    0.0000 N   0  0  0  0  0  0  0  0  0  0  0  0
   -7.5000    2.5981    0.0000 C   0  0  0  0  0  0  0  0  0  0  0  0
   -8.2500    1.2990    0.0000 N   0  0  0  0  0  0  0  0  0  0  0  0
   -8.2500    3.8971    0.0000 S   0  0  0  0  0  0  0  0  0  0  0  0
   -9.7500    3.8971    0.0000 C   0  0  0  0  0  0  0  0  0  0  0  0
  -10.5000    5.1962    0.0000 C   0  0  0  0  0  0  0  0  0  0  0  0
  -12.0000    5.1962    0.0000 C   0  0  0  0  0  0  0  0  0  0  0  0
  -12.7500    3.8971    0.0000 C   0  0  0  0  0  0  0  0  0  0  0  0
  -14.2500    3.8971    0.0000 N   0  0  0  0  0  0  0  0  0  0  0  0
  -15.0000    5.1962    0.0000 C   0  0  0  0  0  0  0  0  0  0  0  0
  -16.5000    5.1962    0.0000 C   0  0  0  0  0  0  0  0  0  0  0  0
  -14.2500    6.4952    0.0000 O   0  0  0  0  0  0  0  0  0  0  0  0
  -12.0000    2.5981    0.0000 C   0  0  0  0  0  0  0  0  0  0  0  0
  -10.5000    2.5981    0.0000 C   0  0  0  0  0  0  0  0  0  0  0  0
   -0.7500    1.2990    0.0000 C   0  0  0  0  0  0  0  0  0  0  0  0
    0.7500    1.2990    0.0000 C   0  0  0  0  0  0  0  0  0  0  0  0
  1  2  1  0
  2  3  2  0
  2  4  1  0
  4  5  1  0
  5  6  2  0
  6  7  1  0
  7  8  2  0
  8  9  1  0
  9 10  1  0
 10 11  1  0
 10 12  2  0
 12 13  1  0
 13 14  3  0
 12 15  1  0
 15 16  1  0
 16 17  3  0
 15 18  2  0
 18 19  1  0
 18 20  1  0
 20 21  1  0
 21 22  2  0
 22 23  1  0
 23 24  2  0
 24 25  1  0
 25 26  1  0
 26 27  1  0
 26 28  2  0
 24 29  1  0
 29 30  2  0
  8 31  1  0
 31 32  2  0
 32  5  1  0
 30 21  1  0
M  END
>  <Compound_ID>  (137) 
CHEMBL98178

>  <Active>  (137) 
0

>  <Smiles>  (137) 
CC(=O)Nc1ccc(S/C(N)=C(C#N)/C(C#N)=C(\N)Sc2ccc(NC(C)=O)cc2)cc1

>  <canonical_smi>  (137) 
CC(=O)Nc1ccc(S/C(N)=C(C#N)/C(C#N)=C(\N)Sc2ccc(NC(C)=O)cc2)cc1

>  <Set>  (137) 
G2 inactive

>  <Set_type>  (137) 
External

>  <MW>  (137) 
464.58

>  <HBD>  (137) 
4

>  <HBA>  (137) 
8

>  <NRB>  (137) 
7

>  <NR>  (137) 
2

>  <NAR>  (137) 
2

>  <PSA>  (137) 
157.82

>  <Standard Type>  (137) 
Inhibition

>  <Standard Relation>  (137) 
'='

>  <Standard Units>  (137) 
%

>  <Standard Value>  (137) 
0.0

>  <Assay ChEMBL ID>  (137) 
CHEMBL711123

>  <Assay Description>  (137) 
Non-competitive inhibition of the dual specificity kinase MEK at the concentration 10 uM

>  <BAO Label>  (137) 
single protein format

>  <bits>  (137) 
<rdkit.DataStructs.cDataStructs.ExplicitBitVect object at 0x000002AD6E9B7A00>

>  <Group>  (137) 
G2

$$$$

     RDKit          2D

 22 24  0  0  0  0  0  0  0  0999 V2000
   -6.7407   -9.9851    0.0000 N   0  0  0  0  0  0  0  0  0  0  0  0
   -6.4289   -8.5179    0.0000 S   0  0  0  0  0  0  0  0  0  0  0  0
   -7.8961   -8.2060    0.0000 O   0  0  0  0  0  0  0  0  0  0  0  0
   -4.9617   -8.8297    0.0000 O   0  0  0  0  0  0  0  0  0  0  0  0
   -6.1170   -7.0506    0.0000 C   0  0  0  0  0  0  0  0  0  0  0  0
   -7.2317   -6.0469    0.0000 C   0  0  0  0  0  0  0  0  0  0  0  0
   -6.9199   -4.5797    0.0000 C   0  0  0  0  0  0  0  0  0  0  0  0
   -5.4933   -4.1162    0.0000 C   0  0  0  0  0  0  0  0  0  0  0  0
   -4.3786   -5.1199    0.0000 C   0  0  0  0  0  0  0  0  0  0  0  0
   -2.9520   -4.6564    0.0000 N   0  0  0  0  0  0  0  0  0  0  0  0
   -2.6401   -3.1891    0.0000 C   0  0  0  0  0  0  0  0  0  0  0  0
   -1.2135   -2.7256    0.0000 C   0  0  0  0  0  0  0  0  0  0  0  0
   -0.0000   -3.6073    0.0000 C   0  0  0  0  0  0  0  0  0  0  0  0
    0.0000   -5.1073    0.0000 O   0  0  0  0  0  0  0  0  0  0  0  0
    1.2135   -2.7256    0.0000 N   0  0  0  0  0  0  0  0  0  0  0  0
    0.7500   -1.2990    0.0000 C   0  0  0  0  0  0  0  0  0  0  0  0
    1.5000    0.0000    0.0000 C   0  0  0  0  0  0  0  0  0  0  0  0
    0.7500    1.2990    0.0000 C   0  0  0  0  0  0  0  0  0  0  0  0
   -0.7500    1.2990    0.0000 C   0  0  0  0  0  0  0  0  0  0  0  0
   -1.5000    0.0000    0.0000 C   0  0  0  0  0  0  0  0  0  0  0  0
   -0.7500   -1.2990    0.0000 C   0  0  0  0  0  0  0  0  0  0  0  0
   -4.6904   -6.5871    0.0000 C   0  0  0  0  0  0  0  0  0  0  0  0
  1  2  1  0
  2  3  2  0
  2  4  2  0
  2  5  1  0
  5  6  2  0
  6  7  1  0
  7  8  2  0
  8  9  1  0
  9 10  1  0
 10 11  1  0
 11 12  2  0
 12 13  1  0
 13 14  2  0
 13 15  1  0
 15 16  1  0
 16 17  2  0
 17 18  1  0
 18 19  2  0
 19 20  1  0
 20 21  2  0
  9 22  2  0
 22  5  1  0
 21 12  1  0
 21 16  1  0
M  END
>  <Compound_ID>  (138) 
CHEMBL1794059

>  <Active>  (138) 
0

>  <Smiles>  (138) 
NS(=O)(=O)c1cccc(N/C=C2\C(=O)Nc3ccccc32)c1

>  <canonical_smi>  (138) 
NS(=O)(=O)c1cccc(N/C=C2\C(=O)Nc3ccccc32)c1

>  <Set>  (138) 
G2 inactive

>  <Set_type>  (138) 
External

>  <MW>  (138) 
315.35

>  <HBD>  (138) 
3

>  <HBA>  (138) 
4

>  <NRB>  (138) 
3

>  <NR>  (138) 
3

>  <NAR>  (138) 
2

>  <PSA>  (138) 
101.29

>  <Standard Type>  (138) 
Inhibition

>  <Standard Relation>  (138) 
'='

>  <Standard Units>  (138) 
%

>  <Standard Value>  (138) 
5.11

>  <Assay ChEMBL ID>  (138) 
CHEMBL1962207

>  <Assay Description>  (138) 
GSK_PKIS: MEK1 mean inhibition at 1 uM [Nanosyn]

>  <BAO Label>  (138) 
single protein format

>  <bits>  (138) 
<rdkit.DataStructs.cDataStructs.ExplicitBitVect object at 0x000002AD6E9B7A70>

>  <Group>  (138) 
G2

$$$$

     RDKit          2D

 21 23  0  0  0  0  0  0  0  0999 V2000
   -7.7227   -2.1088    0.0000 C   0  0  0  0  0  0  0  0  0  0  0  0
   -6.2961   -1.6453    0.0000 N   0  0  0  0  0  0  0  0  0  0  0  0
   -5.9843   -0.1781    0.0000 C   0  0  0  0  0  0  0  0  0  0  0  0
   -5.1814   -2.6490    0.0000 C   0  0  0  0  0  0  0  0  0  0  0  0
   -3.7548   -2.1855    0.0000 C   0  0  0  0  0  0  0  0  0  0  0  0
   -2.6401   -3.1891    0.0000 C   0  0  0  0  0  0  0  0  0  0  0  0
   -1.2135   -2.7256    0.0000 N   0  0  0  0  0  0  0  0  0  0  0  0
   -0.0000   -3.6073    0.0000 C   0  0  0  0  0  0  0  0  0  0  0  0
   -0.0000   -5.1073    0.0000 C   0  0  0  0  0  0  0  0  0  0  0  0
    1.2135   -5.9890    0.0000 N   0  0  0  0  0  0  0  0  0  0  0  0
    0.7500   -7.4156    0.0000 O   0  0  0  0  0  0  0  0  0  0  0  0
   -0.7500   -7.4156    0.0000 N   0  0  0  0  0  0  0  0  0  0  0  0
   -1.2135   -5.9890    0.0000 C   0  0  0  0  0  0  0  0  0  0  0  0
   -2.6401   -5.5255    0.0000 N   0  0  0  0  0  0  0  0  0  0  0  0
    1.2135   -2.7256    0.0000 N   0  0  0  0  0  0  0  0  0  0  0  0
    0.7500   -1.2990    0.0000 C   0  0  0  0  0  0  0  0  0  0  0  0
    1.5000    0.0000    0.0000 C   0  0  0  0  0  0  0  0  0  0  0  0
    0.7500    1.2990    0.0000 N   0  0  0  0  0  0  0  0  0  0  0  0
   -0.7500    1.2990    0.0000 C   0  0  0  0  0  0  0  0  0  0  0  0
   -1.5000    0.0000    0.0000 C   0  0  0  0  0  0  0  0  0  0  0  0
   -0.7500   -1.2990    0.0000 C   0  0  0  0  0  0  0  0  0  0  0  0
  1  2  1  0
  2  3  1  0
  2  4  1  0
  4  5  1  0
  5  6  1  0
  6  7  1  0
  7  8  1  0
  8  9  1  0
  9 10  2  0
 10 11  1  0
 11 12  1  0
 12 13  2  0
 13 14  1  0
  8 15  2  0
 15 16  1  0
 16 17  2  0
 17 18  1  0
 18 19  2  0
 19 20  1  0
 20 21  2  0
 21  7  1  0
 13  9  1  0
 21 16  1  0
M  END
>  <Compound_ID>  (139) 
CHEMBL191105

>  <Active>  (139) 
0

>  <Smiles>  (139) 
CN(C)CCCn1c(-c2nonc2N)nc2cnccc21

>  <canonical_smi>  (139) 
CN(C)CCCn1c(-c2nonc2N)nc2cnccc21

>  <Set>  (139) 
G2 inactive

>  <Set_type>  (139) 
External

>  <MW>  (139) 
287.33

>  <HBD>  (139) 
1

>  <HBA>  (139) 
7

>  <NRB>  (139) 
5

>  <NR>  (139) 
3

>  <NAR>  (139) 
3

>  <PSA>  (139) 
98.89

>  <Standard Type>  (139) 
Inhibition

>  <Standard Relation>  (139) 
'='

>  <Standard Units>  (139) 
%

>  <Standard Value>  (139) 
4.18

>  <Assay ChEMBL ID>  (139) 
CHEMBL1962207

>  <Assay Description>  (139) 
GSK_PKIS: MEK1 mean inhibition at 1 uM [Nanosyn]

>  <BAO Label>  (139) 
single protein format

>  <bits>  (139) 
<rdkit.DataStructs.cDataStructs.ExplicitBitVect object at 0x000002AD6E9B7AE0>

>  <Group>  (139) 
G2

$$$$

     RDKit          2D

 21 22  0  0  0  0  0  0  0  0999 V2000
    5.2500   -1.2990    0.0000 C   0  0  0  0  0  0  0  0  0  0  0  0
    3.7500   -1.2990    0.0000 O   0  0  0  0  0  0  0  0  0  0  0  0
    3.0000    0.0000    0.0000 C   0  0  0  0  0  0  0  0  0  0  0  0
    3.7500    1.2990    0.0000 O   0  0  0  0  0  0  0  0  0  0  0  0
    1.5000    0.0000    0.0000 C   0  0  0  0  0  0  0  0  0  0  0  0
    0.7500   -1.2990    0.0000 C   0  0  0  0  0  0  0  0  0  0  0  0
   -0.7500   -1.2990    0.0000 N   0  0  0  0  0  0  0  0  0  0  0  0
   -1.5000    0.0000    0.0000 C   0  0  0  0  0  0  0  0  0  0  0  0
   -0.7500    1.2990    0.0000 C   0  0  0  0  0  0  0  0  0  0  0  0
   -1.5000    2.5981    0.0000 C   0  0  0  0  0  0  0  0  0  0  0  0
   -0.7500    3.8971    0.0000 C   0  0  0  0  0  0  0  0  0  0  0  0
   -1.5000    5.1962    0.0000 C   0  0  0  0  0  0  0  0  0  0  0  0
   -0.7500    6.4952    0.0000 C   0  0  0  0  0  0  0  0  0  0  0  0
    0.7500    6.4952    0.0000 C   0  0  0  0  0  0  0  0  0  0  0  0
   -1.5000    7.7942    0.0000 C   0  0  0  0  0  0  0  0  0  0  0  0
   -3.0000    7.7942    0.0000 C   0  0  0  0  0  0  0  0  0  0  0  0
   -3.7500    9.0933    0.0000 O   0  0  0  0  0  0  0  0  0  0  0  0
   -3.7500    6.4952    0.0000 C   0  0  0  0  0  0  0  0  0  0  0  0
   -3.0000    5.1962    0.0000 C   0  0  0  0  0  0  0  0  0  0  0  0
   -3.7500    3.8971    0.0000 C   0  0  0  0  0  0  0  0  0  0  0  0
    0.7500    1.2990    0.0000 C   0  0  0  0  0  0  0  0  0  0  0  0
  1  2  1  0
  2  3  1  0
  3  4  2  0
  3  5  1  0
  5  6  2  0
  6  7  1  0
  7  8  2  0
  8  9  1  0
  9 10  1  0
 10 11  2  0
 11 12  1  0
 12 13  2  0
 13 14  1  0
 13 15  1  0
 15 16  2  0
 16 17  1  0
 16 18  1  0
 18 19  2  0
 19 20  1  0
  9 21  2  0
 21  5  1  0
 19 12  1  0
M  END
>  <Compound_ID>  (140) 
CHEMBL220243

>  <Active>  (140) 
0

>  <Smiles>  (140) 
COC(=O)c1cncc(/C=C/c2c(C)cc(O)cc2C)c1

>  <canonical_smi>  (140) 
COC(=O)c1cncc(/C=C/c2c(C)cc(O)cc2C)c1

>  <Set>  (140) 
G2 inactive

>  <Set_type>  (140) 
External

>  <MW>  (140) 
283.33

>  <HBD>  (140) 
1

>  <HBA>  (140) 
4

>  <NRB>  (140) 
3

>  <NR>  (140) 
2

>  <NAR>  (140) 
2

>  <PSA>  (140) 
59.42

>  <Standard Type>  (140) 
Inhibition

>  <Standard Relation>  (140) 
'='

>  <Standard Units>  (140) 
%

>  <Standard Value>  (140) 
4.46

>  <Assay ChEMBL ID>  (140) 
CHEMBL1962206

>  <Assay Description>  (140) 
GSK_PKIS: MEK1 mean inhibition at 0.1 uM [Nanosyn]

>  <BAO Label>  (140) 
single protein format

>  <bits>  (140) 
<rdkit.DataStructs.cDataStructs.ExplicitBitVect object at 0x000002AD6E9B7B50>

>  <Group>  (140) 
G2

$$$$

     RDKit          2D

 27 29  0  0  0  0  0  0  0  0999 V2000
    3.7500   -1.2990    0.0000 C   0  0  0  0  0  0  0  0  0  0  0  0
    3.0000    0.0000    0.0000 O   0  0  0  0  0  0  0  0  0  0  0  0
    1.5000    0.0000    0.0000 C   0  0  0  0  0  0  0  0  0  0  0  0
    0.7500   -1.2990    0.0000 C   0  0  0  0  0  0  0  0  0  0  0  0
   -0.7500   -1.2990    0.0000 C   0  0  0  0  0  0  0  0  0  0  0  0
   -1.5000    0.0000    0.0000 C   0  0  0  0  0  0  0  0  0  0  0  0
   -3.0000    0.0000    0.0000 C   0  0  0  0  0  0  0  0  0  0  0  0
   -3.7500    1.2990    0.0000 O   0  0  0  0  0  0  0  0  0  0  0  0
   -5.2500    1.2990    0.0000 C   0  0  0  0  0  0  0  0  0  0  0  0
   -6.0000    2.5981    0.0000 C   0  0  0  0  0  0  0  0  0  0  0  0
   -7.5000    2.5981    0.0000 C   0  0  0  0  0  0  0  0  0  0  0  0
   -8.2500    1.2990    0.0000 C   0  0  0  0  0  0  0  0  0  0  0  0
   -9.7500    1.2990    0.0000 C   0  0  0  0  0  0  0  0  0  0  0  0
  -10.5000    2.5981    0.0000 C   0  0  0  0  0  0  0  0  0  0  0  0
   -9.7500    3.8971    0.0000 C   0  0  0  0  0  0  0  0  0  0  0  0
  -10.5000    5.1962    0.0000 N   0  0  0  0  0  0  0  0  0  0  0  0
  -12.0000    5.1962    0.0000 C   0  0  0  0  0  0  0  0  0  0  0  0
  -12.7500    6.4952    0.0000 N   0  0  0  0  0  0  0  0  0  0  0  0
  -12.7500    3.8971    0.0000 N   0  0  0  0  0  0  0  0  0  0  0  0
  -12.0000    2.5981    0.0000 C   0  0  0  0  0  0  0  0  0  0  0  0
  -12.7500    1.2990    0.0000 N   0  0  0  0  0  0  0  0  0  0  0  0
   -7.5000    0.0000    0.0000 C   0  0  0  0  0  0  0  0  0  0  0  0
   -6.0000    0.0000    0.0000 C   0  0  0  0  0  0  0  0  0  0  0  0
   -5.2500   -1.2990    0.0000 O   0  0  0  0  0  0  0  0  0  0  0  0
   -6.0000   -2.5981    0.0000 C   0  0  0  0  0  0  0  0  0  0  0  0
   -0.7500    1.2990    0.0000 C   0  0  0  0  0  0  0  0  0  0  0  0
    0.7500    1.2990    0.0000 C   0  0  0  0  0  0  0  0  0  0  0  0
  1  2  1  0
  2  3  1  0
  3  4  2  0
  4  5  1  0
  5  6  2  0
  6  7  1  0
  7  8  1  0
  8  9  1  0
  9 10  2  0
 10 11  1  0
 11 12  2  0
 12 13  1  0
 13 14  1  0
 14 15  2  0
 15 16  1  0
 16 17  2  0
 17 18  1  0
 17 19  1  0
 19 20  2  0
 20 21  1  0
 12 22  1  0
 22 23  2  0
 23 24  1  0
 24 25  1  0
  6 26  1  0
 26 27  2  0
 27  3  1  0
 23  9  1  0
 20 14  1  0
M  END
>  <Compound_ID>  (141) 
CHEMBL261849

>  <Active>  (141) 
0

>  <Smiles>  (141) 
COc1ccc(COc2ccc(Cc3cnc(N)nc3N)cc2OC)cc1

>  <canonical_smi>  (141) 
COc1ccc(COc2ccc(Cc3cnc(N)nc3N)cc2OC)cc1

>  <Set>  (141) 
G2 inactive

>  <Set_type>  (141) 
External

>  <MW>  (141) 
366.42

>  <HBD>  (141) 
2

>  <HBA>  (141) 
7

>  <NRB>  (141) 
7

>  <NR>  (141) 
3

>  <NAR>  (141) 
3

>  <PSA>  (141) 
105.51

>  <Standard Type>  (141) 
Inhibition

>  <Standard Relation>  (141) 
'='

>  <Standard Units>  (141) 
%

>  <Standard Value>  (141) 
1.32

>  <Assay ChEMBL ID>  (141) 
CHEMBL1962207

>  <Assay Description>  (141) 
GSK_PKIS: MEK1 mean inhibition at 1 uM [Nanosyn]

>  <BAO Label>  (141) 
single protein format

>  <bits>  (141) 
<rdkit.DataStructs.cDataStructs.ExplicitBitVect object at 0x000002AD6E9B7DF0>

>  <Group>  (141) 
G2

$$$$

     RDKit          2D

 39 43  0  0  0  0  0  0  0  0999 V2000
    3.7500   -1.2990    0.0000 C   0  0  0  0  0  0  0  0  0  0  0  0
    3.0000    0.0000    0.0000 O   0  0  0  0  0  0  0  0  0  0  0  0
    1.5000    0.0000    0.0000 C   0  0  0  0  0  0  0  0  0  0  0  0
    0.7500   -1.2990    0.0000 C   0  0  0  0  0  0  0  0  0  0  0  0
   -0.7500   -1.2990    0.0000 C   0  0  0  0  0  0  0  0  0  0  0  0
   -1.5000    0.0000    0.0000 C   0  0  0  0  0  0  0  0  0  0  0  0
   -0.7500    1.2990    0.0000 C   0  0  0  0  0  0  0  0  0  0  0  0
    0.7500    1.2990    0.0000 C   0  0  0  0  0  0  0  0  0  0  0  0
    1.5000    2.5981    0.0000 N   0  0  0  0  0  0  0  0  0  0  0  0
    3.0000    2.5981    0.0000 C   0  0  0  0  0  0  0  0  0  0  0  0
    3.7500    1.2990    0.0000 N   0  0  0  0  0  0  0  0  0  0  0  0
    5.2500    1.2990    0.0000 C   0  0  0  0  0  0  0  0  0  0  0  0
    6.0000   -0.0000    0.0000 N   0  0  0  0  0  0  0  0  0  0  0  0
    7.5000    0.0000    0.0000 C   0  0  0  0  0  0  0  0  0  0  0  0
    8.3817    1.2135    0.0000 C   0  0  0  0  0  0  0  0  0  0  0  0
    9.8083    0.7500    0.0000 C   0  0  0  0  0  0  0  0  0  0  0  0
    9.8083   -0.7500    0.0000 S   0  0  0  0  0  0  0  0  0  0  0  0
    8.3817   -1.2135    0.0000 C   0  0  0  0  0  0  0  0  0  0  0  0
    7.9182   -2.6401    0.0000 C   0  0  0  0  0  0  0  0  0  0  0  0
    8.9218   -3.7548    0.0000 N   0  0  0  0  0  0  0  0  0  0  0  0
    6.4509   -2.9520    0.0000 O   0  0  0  0  0  0  0  0  0  0  0  0
    6.0000    2.5981    0.0000 C   0  0  0  0  0  0  0  0  0  0  0  0
    7.4672    2.9099    0.0000 C   0  0  0  0  0  0  0  0  0  0  0  0
    7.6240    4.4017    0.0000 C   0  0  0  0  0  0  0  0  0  0  0  0
    6.2537    5.0118    0.0000 N   0  0  0  0  0  0  0  0  0  0  0  0
    5.2500    3.8971    0.0000 C   0  0  0  0  0  0  0  0  0  0  0  0
    3.7500    3.8971    0.0000 N   0  0  0  0  0  0  0  0  0  0  0  0
   -3.0000    0.0000    0.0000 N   0  0  0  0  0  0  0  0  0  0  0  0
   -3.7500    1.2990    0.0000 C   0  0  0  0  0  0  0  0  0  0  0  0
   -3.0000    2.5981    0.0000 O   0  0  0  0  0  0  0  0  0  0  0  0
   -5.2500    1.2990    0.0000 C   0  0  0  0  0  0  0  0  0  0  0  0
   -6.0000    2.5981    0.0000 N   0  0  0  0  0  0  0  0  0  0  0  0
   -7.5000    2.5981    0.0000 C   0  0  0  0  0  0  0  0  0  0  0  0
   -5.2500    3.8971    0.0000 C   0  0  0  0  0  0  0  0  0  0  0  0
   -3.7500   -1.2990    0.0000 C   0  0  0  0  0  0  0  0  0  0  0  0
   -3.0000   -2.5981    0.0000 C   0  0  0  0  0  0  0  0  0  0  0  0
   -1.5000   -2.5981    0.0000 C   0  0  0  0  0  0  0  0  0  0  0  0
   -0.0905   -3.1111    0.0000 C   0  0  0  0  0  0  0  0  0  0  0  0
   -1.7605   -4.0753    0.0000 C   0  0  0  0  0  0  0  0  0  0  0  0
  1  2  1  0
  2  3  1  0
  3  4  2  0
  4  5  1  0
  5  6  2  0
  6  7  1  0
  7  8  2  0
  8  9  1  0
  9 10  1  0
 10 11  2  0
 11 12  1  0
 12 13  1  0
 13 14  1  0
 14 15  1  0
 15 16  2  0
 16 17  1  0
 17 18  1  0
 18 19  1  0
 19 20  1  0
 19 21  2  0
 12 22  2  0
 22 23  1  0
 23 24  2  0
 24 25  1  0
 25 26  1  0
 26 27  2  0
  6 28  1  0
 28 29  1  0
 29 30  2  0
 29 31  1  0
 31 32  1  0
 32 33  1  0
 32 34  1  0
 28 35  1  0
 35 36  1  0
 36 37  1  0
 37 38  1  0
 37 39  1  0
  8  3  1  0
 27 10  1  0
 37  5  1  0
 18 14  2  0
 26 22  1  0
M  END
>  <Compound_ID>  (142) 
CHEMBL463931

>  <Active>  (142) 
0

>  <Smiles>  (142) 
COc1cc2c(cc1Nc1nc(Nc3ccsc3C(N)=O)c3cc[nH]c3n1)N(C(=O)CN(C)C)CCC2(C)C

>  <canonical_smi>  (142) 
COc1cc2c(cc1Nc1nc(Nc3ccsc3C(N)=O)c3cc[nH]c3n1)N(C(=O)CN(C)C)CCC2(C)C

>  <Set>  (142) 
G2 inactive

>  <Set_type>  (142) 
External

>  <MW>  (142) 
548.67

>  <HBD>  (142) 
4

>  <HBA>  (142) 
8

>  <NRB>  (142) 
8

>  <NR>  (142) 
5

>  <NAR>  (142) 
4

>  <PSA>  (142) 
141.5

>  <Standard Type>  (142) 
Inhibition

>  <Standard Relation>  (142) 
'='

>  <Standard Units>  (142) 
%

>  <Standard Value>  (142) 
9.57

>  <Assay ChEMBL ID>  (142) 
CHEMBL1962206

>  <Assay Description>  (142) 
GSK_PKIS: MEK1 mean inhibition at 0.1 uM [Nanosyn]

>  <BAO Label>  (142) 
single protein format

>  <bits>  (142) 
<rdkit.DataStructs.cDataStructs.ExplicitBitVect object at 0x000002AD6E9B7E60>

>  <Group>  (142) 
G2

$$$$
