
     RDKit          2D

 18 20  0  0  0  0  0  0  0  0999 V2000
   -3.7500   -6.4952    0.0000 C   0  0  0  0  0  0  0  0  0  0  0  0
   -3.0000   -5.1962    0.0000 C   0  0  0  0  0  0  0  0  0  0  0  0
   -3.7500   -3.8971    0.0000 C   0  0  0  0  0  0  0  0  0  0  0  0
   -3.0000   -2.5981    0.0000 C   0  0  0  0  0  0  0  0  0  0  0  0
   -1.5000   -2.5981    0.0000 C   0  0  0  0  0  0  0  0  0  0  0  0
   -0.7500   -3.8971    0.0000 C   0  0  0  0  0  0  0  0  0  0  0  0
    0.7500   -3.8971    0.0000 C   0  0  0  0  0  0  0  0  0  0  0  0
    1.5000   -2.5981    0.0000 C   0  0  0  0  0  0  0  0  0  0  0  0
    0.7500   -1.2990    0.0000 C   0  0  0  0  0  0  0  0  0  0  0  0
    1.5000    0.0000    0.0000 C   0  0  0  0  0  0  0  0  0  0  0  0
    0.7500    1.2990    0.0000 C   0  0  0  0  0  0  0  0  0  0  0  0
    1.5000    2.5981    0.0000 O   0  0  0  0  0  0  0  0  0  0  0  0
   -0.7500    1.2990    0.0000 C   0  0  0  0  0  0  0  0  0  0  0  0
   -1.5000    0.0000    0.0000 C   0  0  0  0  0  0  0  0  0  0  0  0
   -0.7500   -1.2990    0.0000 C   0  0  0  0  0  0  0  0  0  0  0  0
   -2.2500   -1.2990    0.0000 C   0  0  0  0  0  0  0  0  0  0  0  0
   -1.5000   -5.1962    0.0000 C   0  0  0  0  0  0  0  0  0  0  0  0
   -0.7500   -6.4952    0.0000 O   0  0  0  0  0  0  0  0  0  0  0  0
  1  2  1  0
  2  3  2  0
  3  4  1  0
  5  4  1  1
  5  6  1  0
  6  7  1  6
  7  8  1  0
  9  8  1  1
  9 10  1  0
 10 11  1  0
 11 12  1  6
 11 13  1  0
 13 14  1  0
 14 15  1  0
 15 16  1  6
  6 17  1  0
 17 18  2  0
 17  2  1  0
 15  5  1  0
 15  9  1  0
M  END
>  <Compound_ID>  (1) 
C19908735

>  <Active>  (1) 
0

>  <Smiles>  (1) 
CC1=CC[C@@H]2[C@H](CC[C@@H]3C[C@@H](O)CC[C@@]32C)C1=O

>  <canonical_smi>  (1) 
CC1=CC[C@@H]2[C@H](CC[C@@H]3C[C@@H](O)CC[C@@]32C)C1=O

>  <Set>  (1) 
G2 inactive

>  <Set_type>  (1) 
Train

>  <MW>  (1) 
248.37

>  <HBD>  (1) 
1

>  <HBA>  (1) 
2

>  <NRB>  (1) 
0

>  <NR>  (1) 
3

>  <NAR>  (1) 
0

>  <PSA>  (1) 
37.3

>  <Standard Type>  (1) 
nan

>  <Standard Relation>  (1) 
nan

>  <Standard Units>  (1) 
nan

>  <Standard Value>  (1) 
nan

>  <Assay ChEMBL ID>  (1) 
nan

>  <Assay Description>  (1) 
nan

>  <BAO Label>  (1) 
nan

$$$$

     RDKit          2D

 15 17  0  0  0  0  0  0  0  0999 V2000
   -3.0000   -5.1962    0.0000 O   0  0  0  0  0  0  0  0  0  0  0  0
   -1.5000   -5.1962    0.0000 N   0  0  0  0  0  0  0  0  0  0  0  0
   -0.7500   -3.8971    0.0000 C   0  0  0  0  0  0  0  0  0  0  0  0
    0.7500   -3.8971    0.0000 C   0  0  0  0  0  0  0  0  0  0  0  0
    0.0000   -5.1962    0.0000 C   0  0  0  0  0  0  0  0  0  0  0  0
   -1.5000   -5.1962    0.0000 C   0  0  0  0  0  0  0  0  0  0  0  0
   -2.2500   -3.8971    0.0000 C   0  0  0  0  0  0  0  0  0  0  0  0
   -1.5000   -2.5981    0.0000 C   0  0  0  0  0  0  0  0  0  0  0  0
   -0.7500   -1.2990    0.0000 C   0  0  0  0  0  0  0  0  0  0  0  0
    0.7500   -1.2990    0.0000 C   0  0  0  0  0  0  0  0  0  0  0  0
    1.5000    0.0000    0.0000 C   0  0  0  0  0  0  0  0  0  0  0  0
    0.7500    1.2990    0.0000 C   0  0  0  0  0  0  0  0  0  0  0  0
   -0.7500    1.2990    0.0000 C   0  0  0  0  0  0  0  0  0  0  0  0
   -1.5000    0.0000    0.0000 C   0  0  0  0  0  0  0  0  0  0  0  0
    1.5000   -2.5981    0.0000 C   0  0  0  0  0  0  0  0  0  0  0  0
  1  2  1  0
  2  3  2  0
  3  4  1  0
  4  5  1  6
  5  6  1  0
  6  7  1  0
  8  7  1  6
  8  9  1  0
  9 10  2  0
 10 11  1  0
 11 12  1  0
 12 13  1  0
 13 14  1  0
 10 15  1  0
  8  3  1  0
 14  9  1  0
 15  4  1  0
M  END
>  <Compound_ID>  (2) 
C43741861

>  <Active>  (2) 
0

>  <Smiles>  (2) 
O/N=C1/[C@H]2CCC[C@@H]1C1=C(CCCC1)C2

>  <canonical_smi>  (2) 
O/N=C1/[C@H]2CCC[C@@H]1C1=C(CCCC1)C2

>  <Set>  (2) 
G2 inactive

>  <Set_type>  (2) 
Train

>  <MW>  (2) 
205.3

>  <HBD>  (2) 
1

>  <HBA>  (2) 
1

>  <NRB>  (2) 
0

>  <NR>  (2) 
3

>  <NAR>  (2) 
0

>  <PSA>  (2) 
32.59

>  <Standard Type>  (2) 
nan

>  <Standard Relation>  (2) 
nan

>  <Standard Units>  (2) 
nan

>  <Standard Value>  (2) 
nan

>  <Assay ChEMBL ID>  (2) 
nan

>  <Assay Description>  (2) 
nan

>  <BAO Label>  (2) 
nan

$$$$

     RDKit          2D

 15 16  0  0  0  0  0  0  0  0999 V2000
    1.5000   -5.1962    0.0000 C   0  0  0  0  0  0  0  0  0  0  0  0
    0.7500   -3.8971    0.0000 C   0  0  0  0  0  0  0  0  0  0  0  0
   -0.7500   -3.8971    0.0000 C   0  0  0  0  0  0  0  0  0  0  0  0
   -1.5000   -2.5981    0.0000 C   0  0  0  0  0  0  0  0  0  0  0  0
   -3.0000   -2.5981    0.0000 C   0  0  0  0  0  0  0  0  0  0  0  0
   -0.7500   -1.2990    0.0000 C   0  0  0  0  0  0  0  0  0  0  0  0
    0.7500   -1.2990    0.0000 C   0  0  0  0  0  0  0  0  0  0  0  0
    1.5000   -2.5981    0.0000 C   0  0  0  0  0  0  0  0  0  0  0  0
    1.5000    0.0000    0.0000 N   0  0  0  0  0  0  0  0  0  0  0  0
    0.7500    1.2990    0.0000 C   0  0  0  0  0  0  0  0  0  0  0  0
    1.5000    2.5981    0.0000 C   0  0  0  0  0  0  0  0  0  0  0  0
    3.0000    2.5981    0.0000 C   0  0  0  0  0  0  0  0  0  0  0  0
    0.7500    3.8971    0.0000 C   0  0  0  0  0  0  0  0  0  0  0  0
   -0.7500    1.2990    0.0000 C   0  0  0  0  0  0  0  0  0  0  0  0
   -1.5000    0.0000    0.0000 O   0  0  0  0  0  0  0  0  0  0  0  0
  1  2  1  0
  2  3  2  0
  3  4  1  0
  4  5  1  0
  4  6  2  0
  6  7  1  0
  7  8  2  0
  7  9  1  0
  9 10  1  0
 10 11  1  6
 11 12  1  0
 11 13  1  0
 10 14  1  0
 14 15  1  0
  8  2  1  0
 15  6  1  0
M  END
>  <Compound_ID>  (3) 
C62523777

>  <Active>  (3) 
0

>  <Smiles>  (3) 
Cc1cc(C)c2c(c1)N[C@@H](C(C)C)CO2

>  <canonical_smi>  (3) 
Cc1cc(C)c2c(c1)N[C@@H](C(C)C)CO2

>  <Set>  (3) 
G2 inactive

>  <Set_type>  (3) 
Train

>  <MW>  (3) 
205.3

>  <HBD>  (3) 
1

>  <HBA>  (3) 
2

>  <NRB>  (3) 
1

>  <NR>  (3) 
2

>  <NAR>  (3) 
1

>  <PSA>  (3) 
21.26

>  <Standard Type>  (3) 
nan

>  <Standard Relation>  (3) 
nan

>  <Standard Units>  (3) 
nan

>  <Standard Value>  (3) 
nan

>  <Assay ChEMBL ID>  (3) 
nan

>  <Assay Description>  (3) 
nan

>  <BAO Label>  (3) 
nan

$$$$

     RDKit          2D

 19 20  0  0  0  0  0  0  0  0999 V2000
    1.8478   -9.0619    0.0000 C   0  0  0  0  0  0  0  0  0  0  0  0
    2.0046   -7.5702    0.0000 C   0  0  0  0  0  0  0  0  0  0  0  0
    0.8899   -6.5665    0.0000 S   0  0  0  0  0  0  0  0  0  0  0  0
    1.5000   -5.1962    0.0000 C   0  0  0  0  0  0  0  0  0  0  0  0
    0.7500   -3.8971    0.0000 N   0  0  0  0  0  0  0  0  0  0  0  0
    1.5000   -2.5981    0.0000 N   0  0  0  0  0  0  0  0  0  0  0  0
    0.7500   -1.2990    0.0000 C   0  0  0  0  0  0  0  0  0  0  0  0
    1.5000    0.0000    0.0000 C   0  0  0  0  0  0  0  0  0  0  0  0
    0.7500    1.2990    0.0000 C   0  0  0  0  0  0  0  0  0  0  0  0
   -0.7500    1.2990    0.0000 C   0  0  0  0  0  0  0  0  0  0  0  0
   -1.5000    2.5981    0.0000 C   0  0  0  0  0  0  0  0  0  0  0  0
   -0.2010    3.3481    0.0000 C   0  0  0  0  0  0  0  0  0  0  0  0
   -2.7990    1.8481    0.0000 C   0  0  0  0  0  0  0  0  0  0  0  0
   -2.2500    3.8971    0.0000 C   0  0  0  0  0  0  0  0  0  0  0  0
   -1.5000    0.0000    0.0000 C   0  0  0  0  0  0  0  0  0  0  0  0
   -0.7500   -1.2990    0.0000 C   0  0  0  0  0  0  0  0  0  0  0  0
    2.9918   -5.3529    0.0000 N   0  0  0  0  0  0  0  0  0  0  0  0
    3.3037   -6.8202    0.0000 C   0  0  0  0  0  0  0  0  0  0  0  0
    4.6740   -7.4303    0.0000 O   0  0  0  0  0  0  0  0  0  0  0  0
  2  1  1  1
  2  3  1  0
  3  4  1  0
  4  5  2  0
  5  6  1  0
  6  7  2  0
  7  8  1  0
  8  9  1  0
  9 10  1  0
 10 11  1  0
 11 12  1  0
 11 13  1  0
 11 14  1  0
 10 15  1  0
 15 16  1  0
  4 17  1  0
 17 18  1  0
 18 19  2  0
 18  2  1  0
 16  7  1  0
M  END
>  <Compound_ID>  (4) 
C05559672

>  <Active>  (4) 
0

>  <Smiles>  (4) 
C[C@H]1S/C(=N/N=C2CCC(C(C)(C)C)CC2)NC1=O

>  <canonical_smi>  (4) 
C[C@H]1S/C(=N/N=C2CCC(C(C)(C)C)CC2)NC1=O

>  <Set>  (4) 
G2 inactive

>  <Set_type>  (4) 
Train

>  <MW>  (4) 
281.42

>  <HBD>  (4) 
1

>  <HBA>  (4) 
2

>  <NRB>  (4) 
1

>  <NR>  (4) 
2

>  <NAR>  (4) 
0

>  <PSA>  (4) 
53.82

>  <Standard Type>  (4) 
nan

>  <Standard Relation>  (4) 
nan

>  <Standard Units>  (4) 
nan

>  <Standard Value>  (4) 
nan

>  <Assay ChEMBL ID>  (4) 
nan

>  <Assay Description>  (4) 
nan

>  <BAO Label>  (4) 
nan

$$$$

     RDKit          2D

 27 30  0  0  0  0  0  0  0  0999 V2000
   -1.4418   -3.8810    0.0000 C   0  0  0  0  0  0  0  0  0  0  0  0
   -1.7537   -2.4138    0.0000 C   0  0  0  0  0  0  0  0  0  0  0  0
   -3.1240   -1.8037    0.0000 N   0  0  0  0  0  0  0  0  0  0  0  0
   -2.9672   -0.3119    0.0000 N   0  0  0  0  0  0  0  0  0  0  0  0
   -4.0819    0.6918    0.0000 C   0  0  0  0  0  0  0  0  0  0  0  0
   -1.5000    0.0000    0.0000 C   0  0  0  0  0  0  0  0  0  0  0  0
   -0.7500   -1.2990    0.0000 C   0  0  0  0  0  0  0  0  0  0  0  0
    0.7500   -1.2990    0.0000 C   0  0  0  0  0  0  0  0  0  0  0  0
    1.5000   -2.5981    0.0000 C   0  0  0  0  0  0  0  0  0  0  0  0
    0.7500   -3.8971    0.0000 C   0  0  0  0  0  0  0  0  0  0  0  0
    1.5000   -5.1962    0.0000 C   0  0  0  0  0  0  0  0  0  0  0  0
    3.0000   -5.1962    0.0000 C   0  0  0  0  0  0  0  0  0  0  0  0
    3.7500   -6.4952    0.0000 O   0  0  0  0  0  0  0  0  0  0  0  0
    3.0000   -7.7942    0.0000 C   0  0  0  0  0  0  0  0  0  0  0  0
    3.7500   -9.0933    0.0000 C   0  0  0  0  0  0  0  0  0  0  0  0
    3.0000  -10.3923    0.0000 C   0  0  0  0  0  0  0  0  0  0  0  0
    3.7500  -11.6913    0.0000 C   0  0  0  0  0  0  0  0  0  0  0  0
    5.2500  -11.6913    0.0000 C   0  0  0  0  0  0  0  0  0  0  0  0
    6.0000  -10.3923    0.0000 C   0  0  0  0  0  0  0  0  0  0  0  0
    5.2500   -9.0933    0.0000 C   0  0  0  0  0  0  0  0  0  0  0  0
    3.7500   -3.8971    0.0000 C   0  0  0  0  0  0  0  0  0  0  0  0
    3.0000   -2.5981    0.0000 C   0  0  0  0  0  0  0  0  0  0  0  0
    3.7500   -1.2990    0.0000 O   0  0  0  0  0  0  0  0  0  0  0  0
    1.5000    0.0000    0.0000 C   0  0  0  0  0  0  0  0  0  0  0  0
    0.7500    1.2990    0.0000 C   0  0  0  0  0  0  0  0  0  0  0  0
    1.5000    2.5981    0.0000 O   0  0  0  0  0  0  0  0  0  0  0  0
   -0.7500    1.2990    0.0000 N   0  0  0  0  0  0  0  0  0  0  0  0
  1  2  1  0
  2  3  2  0
  3  4  1  0
  4  5  1  0
  4  6  1  0
  6  7  2  0
  7  8  1  0
  8  9  1  1
  9 10  2  0
 10 11  1  0
 11 12  2  0
 12 13  1  0
 13 14  1  0
 14 15  1  0
 15 16  2  0
 16 17  1  0
 17 18  2  0
 18 19  1  0
 19 20  2  0
 12 21  1  0
 21 22  2  0
 22 23  1  0
  8 24  1  0
 24 25  1  0
 25 26  2  0
 25 27  1  0
  7  2  1  0
 22  9  1  0
 27  6  1  0
 20 15  1  0
M  END
>  <Compound_ID>  (5) 
C65420526

>  <Active>  (5) 
0

>  <Smiles>  (5) 
Cc1nn(C)c2c1[C@H](c1ccc(OCc3ccccc3)cc1O)CC(=O)N2

>  <canonical_smi>  (5) 
Cc1nn(C)c2c1[C@H](c1ccc(OCc3ccccc3)cc1O)CC(=O)N2

>  <Set>  (5) 
G2 inactive

>  <Set_type>  (5) 
Train

>  <MW>  (5) 
363.42

>  <HBD>  (5) 
2

>  <HBA>  (5) 
4

>  <NRB>  (5) 
4

>  <NR>  (5) 
4

>  <NAR>  (5) 
3

>  <PSA>  (5) 
76.38

>  <Standard Type>  (5) 
nan

>  <Standard Relation>  (5) 
nan

>  <Standard Units>  (5) 
nan

>  <Standard Value>  (5) 
nan

>  <Assay ChEMBL ID>  (5) 
nan

>  <Assay Description>  (5) 
nan

>  <BAO Label>  (5) 
nan

$$$$

     RDKit          2D

 26 29  0  0  0  0  0  0  0  0999 V2000
   -0.0000   -5.1073    0.0000 O   0  0  0  0  0  0  0  0  0  0  0  0
   -0.0000   -3.6073    0.0000 C   0  0  0  0  0  0  0  0  0  0  0  0
    1.2135   -2.7256    0.0000 N   0  0  0  0  0  0  0  0  0  0  0  0
    0.7500   -1.2990    0.0000 C   0  0  0  0  0  0  0  0  0  0  0  0
    1.5000    0.0000    0.0000 C   0  0  0  0  0  0  0  0  0  0  0  0
    0.7500    1.2990    0.0000 C   0  0  0  0  0  0  0  0  0  0  0  0
   -0.7500    1.2990    0.0000 C   0  0  0  0  0  0  0  0  0  0  0  0
   -1.5000    0.0000    0.0000 C   0  0  0  0  0  0  0  0  0  0  0  0
   -0.7500   -1.2990    0.0000 C   0  0  0  0  0  0  0  0  0  0  0  0
   -1.2135   -2.7256    0.0000 C   0  0  0  0  0  0  0  0  0  0  0  0
   -2.6401   -3.1891    0.0000 N   0  0  0  0  0  0  0  0  0  0  0  0
   -3.7548   -2.1855    0.0000 C   0  0  0  0  0  0  0  0  0  0  0  0
   -3.4430   -0.7182    0.0000 C   0  0  0  0  0  0  0  0  0  0  0  0
   -4.5577    0.2855    0.0000 C   0  0  0  0  0  0  0  0  0  0  0  0
   -5.9843   -0.1781    0.0000 C   0  0  0  0  0  0  0  0  0  0  0  0
   -7.0990    0.8256    0.0000 S   0  0  0  0  0  4  0  0  0  0  0  0
   -8.5256    0.3621    0.0000 O   0  0  0  0  0  0  0  0  0  0  0  0
   -6.7871    2.2929    0.0000 O   0  0  0  0  0  0  0  0  0  0  0  0
   -7.9018    3.2966    0.0000 N   0  0  0  0  0  0  0  0  0  0  0  0
   -7.5900    4.7638    0.0000 C   0  0  0  0  0  0  0  0  0  0  0  0
   -8.5937    5.8785    0.0000 N   0  0  0  0  0  0  0  0  0  0  0  0
   -7.8437    7.1775    0.0000 C   0  0  0  0  0  0  0  0  0  0  0  0
   -6.3764    6.8657    0.0000 C   0  0  0  0  0  0  0  0  0  0  0  0
   -6.2196    5.3739    0.0000 S   0  0  0  0  0  0  0  0  0  0  0  0
   -6.2961   -1.6453    0.0000 C   0  0  0  0  0  0  0  0  0  0  0  0
   -5.1814   -2.6490    0.0000 C   0  0  0  0  0  0  0  0  0  0  0  0
  1  2  2  0
  2  3  1  0
  3  4  1  0
  4  5  2  0
  5  6  1  0
  6  7  2  0
  7  8  1  0
  8  9  2  0
  9 10  1  0
 10 11  2  0
 11 12  1  0
 12 13  2  0
 13 14  1  0
 14 15  2  0
 15 16  1  0
 16 17  2  0
 16 18  1  6
 18 19  1  0
 19 20  1  0
 20 21  2  0
 21 22  1  0
 22 23  2  0
 23 24  1  0
 15 25  1  0
 25 26  2  0
 10  2  1  0
 26 12  1  0
  9  4  1  0
 24 20  1  0
M  END
>  <Compound_ID>  (6) 
C59435027

>  <Active>  (6) 
0

>  <Smiles>  (6) 
O=C1Nc2ccccc2/C1=N\c1ccc([S@](=O)ONc2nccs2)cc1

>  <canonical_smi>  (6) 
O=C1Nc2ccccc2/C1=N\c1ccc([S@](=O)ONc2nccs2)cc1

>  <Set>  (6) 
G2 inactive

>  <Set_type>  (6) 
Train

>  <MW>  (6) 
384.44

>  <HBD>  (6) 
2

>  <HBA>  (6) 
5

>  <NRB>  (6) 
5

>  <NR>  (6) 
4

>  <NAR>  (6) 
3

>  <PSA>  (6) 
92.68

>  <Standard Type>  (6) 
nan

>  <Standard Relation>  (6) 
nan

>  <Standard Units>  (6) 
nan

>  <Standard Value>  (6) 
nan

>  <Assay ChEMBL ID>  (6) 
nan

>  <Assay Description>  (6) 
nan

>  <BAO Label>  (6) 
nan

$$$$

     RDKit          2D

 27 29  0  0  0  0  0  0  0  0999 V2000
   -0.7500   -3.8971    0.0000 O   0  0  0  0  0  0  0  0  0  0  0  0
    0.7500   -3.8971    0.0000 C   0  0  0  0  0  0  0  0  0  0  0  0
    1.5000   -2.5981    0.0000 C   0  0  0  0  0  0  0  0  0  0  0  0
    0.7500   -1.2990    0.0000 C   0  0  0  0  0  0  0  0  0  0  0  0
    1.5000    0.0000    0.0000 C   0  0  0  0  0  0  0  0  0  0  0  0
    3.0000    0.0000    0.0000 O   0  0  0  0  0  0  0  0  0  0  0  0
    0.7500    1.2990    0.0000 N   0  0  0  0  0  0  0  0  0  0  0  0
   -0.7500    1.2990    0.0000 C   0  0  0  0  0  0  0  0  0  0  0  0
   -1.5000    0.0000    0.0000 C   0  0  0  0  0  0  0  0  0  0  0  0
   -0.7500   -1.2990    0.0000 N   0  0  0  0  0  4  0  0  0  0  0  0
   -1.5000   -2.5981    0.0000 C   0  0  0  0  0  0  0  0  0  0  0  0
   -3.0000   -2.5981    0.0000 C   0  0  0  0  0  0  0  0  0  0  0  0
   -3.7500   -1.2990    0.0000 C   0  0  0  0  0  0  0  0  0  0  0  0
   -5.2500   -1.2990    0.0000 C   0  0  0  0  0  0  0  0  0  0  0  0
   -6.0000   -2.5981    0.0000 C   0  0  0  0  0  0  0  0  0  0  0  0
   -5.2500   -3.8971    0.0000 C   0  0  0  0  0  0  0  0  0  0  0  0
   -3.7500   -3.8971    0.0000 C   0  0  0  0  0  0  0  0  0  0  0  0
    1.5000   -5.1962    0.0000 N   0  0  0  0  0  0  0  0  0  0  0  0
    0.7500   -6.4952    0.0000 C   0  0  0  0  0  0  0  0  0  0  0  0
    1.5000   -7.7942    0.0000 C   0  0  0  0  0  0  0  0  0  0  0  0
    0.7500   -9.0933    0.0000 N   0  0  0  0  0  0  0  0  0  0  0  0
   -0.7500   -9.0933    0.0000 C   0  0  0  0  0  0  0  0  0  0  0  0
   -1.5000  -10.3923    0.0000 C   0  0  0  0  0  0  0  0  0  0  0  0
   -0.7500  -11.6913    0.0000 C   0  0  0  0  0  0  0  0  0  0  0  0
    0.7500  -11.6913    0.0000 C   0  0  0  0  0  0  0  0  0  0  0  0
    1.5000  -10.3923    0.0000 C   0  0  0  0  0  0  0  0  0  0  0  0
    3.0000  -10.3923    0.0000 O   0  0  0  0  0  0  0  0  0  0  0  0
  1  2  2  0
  2  3  1  0
  4  3  1  1
  4  5  1  0
  5  6  2  0
  5  7  1  0
  7  8  1  0
  8  9  1  0
  9 10  1  0
 10 11  1  0
 11 12  1  0
 12 13  1  0
 13 14  1  0
 14 15  1  0
 15 16  1  0
 16 17  1  0
  2 18  1  0
 18 19  1  0
 19 20  1  0
 20 21  1  0
 21 22  1  0
 22 23  1  0
 23 24  1  0
 24 25  1  0
 25 26  1  0
 26 27  2  0
 10  4  1  0
 17 12  1  0
 26 21  1  0
M  CHG  1  10   1
M  END
>  <Compound_ID>  (7) 
C11874799

>  <Active>  (7) 
0

>  <Smiles>  (7) 
O=C(C[C@@H]1C(=O)NCC[NH+]1CC1CCCCC1)NCCN1CCCCC1=O

>  <canonical_smi>  (7) 
O=C(C[C@@H]1C(=O)NCC[NH+]1CC1CCCCC1)NCCN1CCCCC1=O

>  <Set>  (7) 
G2 inactive

>  <Set_type>  (7) 
Train

>  <MW>  (7) 
379.53

>  <HBD>  (7) 
3

>  <HBA>  (7) 
3

>  <NRB>  (7) 
7

>  <NR>  (7) 
3

>  <NAR>  (7) 
0

>  <PSA>  (7) 
82.95

>  <Standard Type>  (7) 
nan

>  <Standard Relation>  (7) 
nan

>  <Standard Units>  (7) 
nan

>  <Standard Value>  (7) 
nan

>  <Assay ChEMBL ID>  (7) 
nan

>  <Assay Description>  (7) 
nan

>  <BAO Label>  (7) 
nan

$$$$

     RDKit          2D

 22 24  0  0  0  0  0  0  0  0999 V2000
    3.0000    0.0000    0.0000 Br  0  0  0  0  0  0  0  0  0  0  0  0
    1.5000    0.0000    0.0000 C   0  0  0  0  0  0  0  0  0  0  0  0
    0.7500   -1.2990    0.0000 C   0  0  0  0  0  0  0  0  0  0  0  0
   -0.7500   -1.2990    0.0000 C   0  0  0  0  0  0  0  0  0  0  0  0
   -1.5000    0.0000    0.0000 C   0  0  0  0  0  0  0  0  0  0  0  0
   -3.0000    0.0000    0.0000 C   0  0  0  0  0  0  0  0  0  0  0  0
   -3.8817   -1.2135    0.0000 C   0  0  0  0  0  0  0  0  0  0  0  0
   -5.3083   -0.7500    0.0000 C   0  0  0  0  0  0  0  0  0  0  0  0
   -5.3083    0.7500    0.0000 C   0  0  0  0  0  0  0  0  0  0  0  0
   -6.5218    1.6317    0.0000 C   0  0  0  0  0  0  0  0  0  0  0  0
   -6.3650    3.1235    0.0000 N   0  0  0  0  0  4  0  0  0  0  0  0
   -7.5785    4.0051    0.0000 C   0  0  0  0  0  0  0  0  0  0  0  0
   -7.4217    5.4969    0.0000 C   0  0  0  0  0  0  0  0  0  0  0  0
   -6.0514    6.1070    0.0000 C   0  0  0  0  0  0  0  0  0  0  0  0
   -5.8946    7.5988    0.0000 C   0  0  0  0  0  0  0  0  0  0  0  0
   -7.1081    8.4805    0.0000 N   0  0  0  0  0  4  0  0  0  0  0  0
   -8.4785    7.8704    0.0000 C   0  0  0  0  0  0  0  0  0  0  0  0
   -8.6353    6.3786    0.0000 C   0  0  0  0  0  0  0  0  0  0  0  0
   -3.8817    1.2135    0.0000 O   0  0  0  0  0  0  0  0  0  0  0  0
   -0.7500    1.2990    0.0000 C   0  0  0  0  0  0  0  0  0  0  0  0
   -1.5000    2.5981    0.0000 Br  0  0  0  0  0  0  0  0  0  0  0  0
    0.7500    1.2990    0.0000 C   0  0  0  0  0  0  0  0  0  0  0  0
  1  2  1  0
  2  3  2  0
  3  4  1  0
  4  5  2  0
  5  6  1  0
  6  7  2  0
  7  8  1  0
  8  9  2  0
  9 10  1  0
 10 11  1  0
 11 12  1  0
 12 13  1  0
 13 14  1  0
 14 15  1  0
 15 16  1  0
 16 17  1  0
 17 18  1  0
  9 19  1  0
  5 20  1  0
 20 21  1  0
 20 22  2  0
 22  2  1  0
 19  6  1  0
 18 13  1  0
M  CHG  2  11   1  16   1
M  END
>  <Compound_ID>  (8) 
C13736450

>  <Active>  (8) 
0

>  <Smiles>  (8) 
Brc1ccc(-c2ccc(C[NH2+]CC3CC[NH2+]CC3)o2)c(Br)c1

>  <canonical_smi>  (8) 
Brc1ccc(-c2ccc(C[NH2+]CC3CC[NH2+]CC3)o2)c(Br)c1

>  <Set>  (8) 
G2 inactive

>  <Set_type>  (8) 
Train

>  <MW>  (8) 
430.18

>  <HBD>  (8) 
2

>  <HBA>  (8) 
1

>  <NRB>  (8) 
5

>  <NR>  (8) 
3

>  <NAR>  (8) 
2

>  <PSA>  (8) 
46.36

>  <Standard Type>  (8) 
nan

>  <Standard Relation>  (8) 
nan

>  <Standard Units>  (8) 
nan

>  <Standard Value>  (8) 
nan

>  <Assay ChEMBL ID>  (8) 
nan

>  <Assay Description>  (8) 
nan

>  <BAO Label>  (8) 
nan

$$$$

     RDKit          2D

 32 34  0  0  0  0  0  0  0  0999 V2000
   -6.4952  -19.3573    0.0000 C   0  0  0  0  0  0  0  0  0  0  0  0
   -5.1962  -18.6073    0.0000 C   0  0  0  0  0  0  0  0  0  0  0  0
   -5.1962  -17.1073    0.0000 C   0  0  0  0  0  0  0  0  0  0  0  0
   -3.8971  -16.3573    0.0000 C   0  0  0  0  0  0  0  0  0  0  0  0
   -3.8971  -14.8573    0.0000 C   0  0  0  0  0  0  0  0  0  0  0  0
   -2.5981  -14.1073    0.0000 O   0  0  0  0  0  0  0  0  0  0  0  0
   -2.5981  -12.6073    0.0000 C   0  0  0  0  0  0  0  0  0  0  0  0
   -3.8971  -11.8573    0.0000 C   0  0  0  0  0  0  0  0  0  0  0  0
   -3.8971  -10.3573    0.0000 C   0  0  0  0  0  0  0  0  0  0  0  0
   -2.5981   -9.6073    0.0000 C   0  0  0  0  0  0  0  0  0  0  0  0
   -2.5981   -8.1073    0.0000 C   0  0  0  0  0  0  0  0  0  0  0  0
   -1.2990   -7.3573    0.0000 C   0  0  0  0  0  0  0  0  0  0  0  0
   -1.2990   -5.8573    0.0000 C   0  0  0  0  0  0  0  0  0  0  0  0
   -2.5981   -5.1073    0.0000 O   0  0  0  0  0  0  0  0  0  0  0  0
   -0.0000   -5.1073    0.0000 N   0  0  0  0  0  0  0  0  0  0  0  0
   -0.0000   -3.6073    0.0000 C   0  0  0  0  0  0  0  0  0  0  0  0
   -1.2135   -2.7256    0.0000 S   0  0  0  0  0  0  0  0  0  0  0  0
   -0.7500   -1.2990    0.0000 C   0  0  0  0  0  0  0  0  0  0  0  0
    0.7500   -1.2990    0.0000 C   0  0  0  0  0  0  0  0  0  0  0  0
    1.2135   -2.7256    0.0000 C   0  0  0  0  0  0  0  0  0  0  0  0
    2.6401   -3.1891    0.0000 C   0  0  0  0  0  0  0  0  0  0  0  0
    2.9520   -4.6564    0.0000 N   0  0  0  0  0  0  0  0  0  0  0  0
    3.7548   -2.1855    0.0000 O   0  0  0  0  0  0  0  0  0  0  0  0
    1.5000    0.0000    0.0000 C   0  0  0  0  0  0  0  0  0  0  0  0
    0.7500    1.2990    0.0000 C   0  0  0  0  0  0  0  0  0  0  0  0
   -0.7500    1.2990    0.0000 C   0  0  0  0  0  0  0  0  0  0  0  0
   -1.5000    2.5981    0.0000 C   0  0  0  0  0  0  0  0  0  0  0  0
   -1.5000    0.0000    0.0000 C   0  0  0  0  0  0  0  0  0  0  0  0
   -1.2990  -10.3573    0.0000 C   0  0  0  0  0  0  0  0  0  0  0  0
   -1.2990  -11.8573    0.0000 C   0  0  0  0  0  0  0  0  0  0  0  0
   -0.0000  -12.6073    0.0000 O   0  0  0  0  0  0  0  0  0  0  0  0
    1.2990  -11.8573    0.0000 C   0  0  0  0  0  0  0  0  0  0  0  0
  1  2  1  0
  2  3  1  0
  3  4  1  0
  4  5  1  0
  5  6  1  0
  6  7  1  0
  7  8  2  0
  8  9  1  0
  9 10  2  0
 10 11  1  0
 11 12  2  0
 12 13  1  0
 13 14  2  0
 13 15  1  0
 15 16  1  0
 16 17  1  0
 17 18  1  0
 18 19  2  0
 19 20  1  0
 20 21  1  0
 21 22  1  0
 21 23  2  0
 19 24  1  0
 24 25  1  0
 25 26  1  0
 26 27  1  6
 26 28  1  0
 10 29  1  0
 29 30  2  0
 30 31  1  0
 31 32  1  0
 30  7  1  0
 20 16  2  0
 28 18  1  0
M  END
>  <Compound_ID>  (9) 
C01771577

>  <Active>  (9) 
0

>  <Smiles>  (9) 
CCCCCOc1ccc(/C=C/C(=O)Nc2sc3c(c2C(N)=O)CC[C@@H](C)C3)cc1OC

>  <canonical_smi>  (9) 
CCCCCOc1ccc(/C=C/C(=O)Nc2sc3c(c2C(N)=O)CC[C@@H](C)C3)cc1OC

>  <Set>  (9) 
G2 inactive

>  <Set_type>  (9) 
Train

>  <MW>  (9) 
456.61

>  <HBD>  (9) 
2

>  <HBA>  (9) 
4

>  <NRB>  (9) 
10

>  <NR>  (9) 
3

>  <NAR>  (9) 
2

>  <PSA>  (9) 
90.65

>  <Standard Type>  (9) 
nan

>  <Standard Relation>  (9) 
nan

>  <Standard Units>  (9) 
nan

>  <Standard Value>  (9) 
nan

>  <Assay ChEMBL ID>  (9) 
nan

>  <Assay Description>  (9) 
nan

>  <BAO Label>  (9) 
nan

$$$$

     RDKit          2D

 31 34  0  0  0  0  0  0  0  0999 V2000
   -3.0000   -7.7942    0.0000 O   0  0  0  0  0  0  0  0  0  0  0  0
   -3.7500   -6.4952    0.0000 C   0  0  0  0  0  0  0  0  0  0  0  0
   -3.0000   -5.1962    0.0000 C   0  0  0  0  0  0  0  0  0  0  0  0
   -1.5000   -5.1962    0.0000 S   0  0  0  0  0  0  0  0  0  0  0  0
   -0.7500   -3.8971    0.0000 C   0  0  0  0  0  0  0  0  0  0  0  0
   -1.5000   -2.5981    0.0000 N   0  0  0  0  0  0  0  0  0  0  0  0
   -0.7500   -1.2990    0.0000 C   0  0  0  0  0  0  0  0  0  0  0  0
    0.7500   -1.2990    0.0000 C   0  0  0  0  0  0  0  0  0  0  0  0
    1.5000   -2.5981    0.0000 C   0  0  0  0  0  0  0  0  0  0  0  0
    3.0000   -2.5981    0.0000 O   0  0  0  0  0  0  0  0  0  0  0  0
    0.7500   -3.8971    0.0000 N   0  0  0  0  0  0  0  0  0  0  0  0
    1.5000    0.0000    0.0000 C   0  0  0  0  0  0  0  0  0  0  0  0
    0.7500    1.2990    0.0000 N   0  0  0  0  0  4  0  0  0  0  0  0
    1.5000    2.5981    0.0000 C   0  0  0  0  0  0  0  0  0  0  0  0
    3.0000    2.5981    0.0000 C   0  0  0  0  0  0  0  0  0  0  0  0
    3.7500    1.2990    0.0000 C   0  0  0  0  0  0  0  0  0  0  0  0
    5.2500    1.2990    0.0000 C   0  0  0  0  0  0  0  0  0  0  0  0
    6.0000    2.5981    0.0000 C   0  0  0  0  0  0  0  0  0  0  0  0
    7.5000    2.5981    0.0000 F   0  0  0  0  0  0  0  0  0  0  0  0
    5.2500    3.8971    0.0000 C   0  0  0  0  0  0  0  0  0  0  0  0
    3.7500    3.8971    0.0000 C   0  0  0  0  0  0  0  0  0  0  0  0
   -0.7500    1.2990    0.0000 C   0  0  0  0  0  0  0  0  0  0  0  0
   -1.5000    0.0000    0.0000 C   0  0  0  0  0  0  0  0  0  0  0  0
   -5.2500   -6.4952    0.0000 N   0  0  0  0  0  0  0  0  0  0  0  0
   -6.0000   -7.7942    0.0000 C   0  0  0  0  0  0  0  0  0  0  0  0
   -7.5000   -7.7942    0.0000 C   0  0  0  0  0  0  0  0  0  0  0  0
   -8.2500   -9.0933    0.0000 C   0  0  0  0  0  0  0  0  0  0  0  0
   -7.5000  -10.3923    0.0000 C   0  0  0  0  0  0  0  0  0  0  0  0
   -8.2500  -11.6913    0.0000 Cl  0  0  0  0  0  0  0  0  0  0  0  0
   -6.0000  -10.3923    0.0000 C   0  0  0  0  0  0  0  0  0  0  0  0
   -5.2500   -9.0933    0.0000 C   0  0  0  0  0  0  0  0  0  0  0  0
  1  2  2  0
  2  3  1  0
  3  4  1  0
  4  5  1  0
  5  6  2  0
  6  7  1  0
  7  8  2  0
  8  9  1  0
  9 10  2  0
  9 11  1  0
  8 12  1  0
 12 13  1  0
 13 14  1  0
 14 15  1  0
 15 16  2  0
 16 17  1  0
 17 18  2  0
 18 19  1  0
 18 20  1  0
 20 21  2  0
 13 22  1  0
 22 23  1  0
  2 24  1  0
 24 25  1  0
 25 26  2  0
 26 27  1  0
 27 28  2  0
 28 29  1  0
 28 30  1  0
 30 31  2  0
 11  5  1  0
 21 15  1  0
 31 25  1  0
 23  7  1  0
M  CHG  1  13   1
M  END
>  <Compound_ID>  (10) 
C02713171

>  <Active>  (10) 
0

>  <Smiles>  (10) 
O=C(CSc1nc2c(c(=O)[nH]1)C[NH+](Cc1ccc(F)cc1)CC2)Nc1ccc(Cl)cc1

>  <canonical_smi>  (10) 
O=C(CSc1nc2c(c(=O)[nH]1)C[NH+](Cc1ccc(F)cc1)CC2)Nc1ccc(Cl)cc1

>  <Set>  (10) 
G2 inactive

>  <Set_type>  (10) 
Train

>  <MW>  (10) 
459.95

>  <HBD>  (10) 
3

>  <HBA>  (10) 
4

>  <NRB>  (10) 
6

>  <NR>  (10) 
4

>  <NAR>  (10) 
3

>  <PSA>  (10) 
79.29

>  <Standard Type>  (10) 
nan

>  <Standard Relation>  (10) 
nan

>  <Standard Units>  (10) 
nan

>  <Standard Value>  (10) 
nan

>  <Assay ChEMBL ID>  (10) 
nan

>  <Assay Description>  (10) 
nan

>  <BAO Label>  (10) 
nan

$$$$

     RDKit          2D

 27 31  0  0  0  0  0  0  0  0999 V2000
   -3.4721   -5.7008    0.0000 N   0  0  0  0  0  0  0  0  0  0  0  0
   -2.1731   -6.4508    0.0000 C   0  0  0  0  0  0  0  0  0  0  0  0
   -2.1731   -7.9508    0.0000 O   0  0  0  0  0  0  0  0  0  0  0  0
   -0.8740   -5.7008    0.0000 C   0  0  0  0  0  0  0  0  0  0  0  0
    0.4963   -6.3109    0.0000 S   0  0  0  0  0  0  0  0  0  0  0  0
    1.5000   -5.1962    0.0000 C   0  0  0  0  0  0  0  0  0  0  0  0
    3.0000   -5.1962    0.0000 N   0  0  0  0  0  0  0  0  0  0  0  0
    3.7500   -3.8971    0.0000 C   0  0  0  0  0  0  0  0  0  0  0  0
    5.2500   -3.8971    0.0000 C   0  0  0  0  0  0  0  0  0  0  0  0
    6.7500   -3.8971    0.0000 F   0  0  0  0  0  0  0  0  0  0  0  0
    5.2500   -5.3971    0.0000 F   0  0  0  0  0  0  0  0  0  0  0  0
    5.2500   -2.3971    0.0000 F   0  0  0  0  0  0  0  0  0  0  0  0
    3.0000   -2.5981    0.0000 C   0  0  0  0  0  0  0  0  0  0  0  0
    1.5000   -2.5981    0.0000 C   0  0  0  0  0  0  0  0  0  0  0  0
    0.7500   -1.2990    0.0000 C   0  0  0  0  0  0  0  0  0  0  0  0
    1.5000    0.0000    0.0000 C   0  0  0  0  0  0  0  0  0  0  0  0
    0.7500    1.2990    0.0000 C   0  0  0  0  0  0  0  0  0  0  0  0
   -0.7500    1.2990    0.0000 C   0  0  0  0  0  0  0  0  0  0  0  0
   -1.5000    0.0000    0.0000 C   0  0  0  0  0  0  0  0  0  0  0  0
    1.7010   -0.7500    0.0000 C   0  0  0  0  0  0  0  0  0  0  0  0
    3.0000   -0.0000    0.0000 C   0  0  0  0  0  0  0  0  0  0  0  0
    2.2500    1.2990    0.0000 C   0  0  0  0  0  0  0  0  0  0  0  0
    2.2500   -1.2990    0.0000 C   0  0  0  0  0  0  0  0  0  0  0  0
   -0.7500   -1.2990    0.0000 C   0  0  0  0  0  0  0  0  0  0  0  0
    0.7500   -3.8971    0.0000 C   0  0  0  0  0  0  0  0  0  0  0  0
   -0.7172   -4.2090    0.0000 C   0  0  0  0  0  0  0  0  0  0  0  0
   -1.8319   -3.2053    0.0000 N   0  0  0  0  0  0  0  0  0  0  0  0
  1  2  1  0
  2  3  2  0
  2  4  1  0
  4  5  1  0
  5  6  1  0
  6  7  2  0
  7  8  1  0
  8  9  1  0
  9 10  1  0
  9 11  1  0
  9 12  1  0
  8 13  2  0
 13 14  1  0
 14 15  1  0
 15 16  1  0
 16 17  1  0
 17 18  1  0
 18 19  1  0
 19 20  1  0
 20 21  1  0
 21 22  1  0
 21 23  1  0
 19 24  1  0
 14 25  2  0
 25 26  1  0
 26 27  1  0
 26  4  2  0
 25  6  1  0
 23 15  1  0
 24 15  1  0
 22 17  1  0
M  END
>  <Compound_ID>  (11) 
C05936354

>  <Active>  (11) 
0

>  <Smiles>  (11) 
NC(=O)c1sc2nc(C(F)(F)F)cc(C34CC5CC(CC(C5)C3)C4)c2c1N

>  <canonical_smi>  (11) 
NC(=O)c1sc2nc(C(F)(F)F)cc(C34CC5CC(CC(C5)C3)C4)c2c1N

>  <Set>  (11) 
G2 inactive

>  <Set_type>  (11) 
Train

>  <MW>  (11) 
395.45

>  <HBD>  (11) 
2

>  <HBA>  (11) 
3

>  <NRB>  (11) 
2

>  <NR>  (11) 
6

>  <NAR>  (11) 
2

>  <PSA>  (11) 
82.0

>  <Standard Type>  (11) 
nan

>  <Standard Relation>  (11) 
nan

>  <Standard Units>  (11) 
nan

>  <Standard Value>  (11) 
nan

>  <Assay ChEMBL ID>  (11) 
nan

>  <Assay Description>  (11) 
nan

>  <BAO Label>  (11) 
nan

$$$$

     RDKit          2D

 21 22  0  0  0  0  0  0  0  0999 V2000
    3.0000    0.0000    0.0000 O   0  0  0  0  0  0  0  0  0  0  0  0
    1.5000    0.0000    0.0000 C   0  0  0  0  0  0  0  0  0  0  0  0
    0.7500   -1.2990    0.0000 C   0  0  0  0  0  0  0  0  0  0  0  0
   -0.7500   -1.2990    0.0000 C   0  0  0  0  0  0  0  0  0  0  0  0
   -1.5000   -2.5981    0.0000 C   0  0  0  0  0  0  0  0  0  0  0  0
   -3.0000   -2.5981    0.0000 N   0  0  0  0  0  0  0  0  0  0  0  0
   -3.7500   -3.8971    0.0000 N   0  0  0  0  0  0  0  0  0  0  0  0
   -5.2500   -3.8971    0.0000 C   0  0  0  0  0  0  0  0  0  0  0  0
   -6.0000   -2.5981    0.0000 S   0  0  0  0  0  0  0  0  0  0  0  0
   -6.0000   -5.1962    0.0000 N   0  0  0  0  0  0  0  0  0  0  0  0
   -7.5000   -5.1962    0.0000 C   0  0  0  0  0  0  0  0  0  0  0  0
   -8.2500   -3.8971    0.0000 C   0  0  0  0  0  0  0  0  0  0  0  0
   -9.7500   -3.8971    0.0000 C   0  0  0  0  0  0  0  0  0  0  0  0
  -10.5000   -5.1962    0.0000 C   0  0  0  0  0  0  0  0  0  0  0  0
   -9.7500   -6.4952    0.0000 C   0  0  0  0  0  0  0  0  0  0  0  0
   -8.2500   -6.4952    0.0000 C   0  0  0  0  0  0  0  0  0  0  0  0
   -1.5000    0.0000    0.0000 C   0  0  0  0  0  0  0  0  0  0  0  0
   -0.7500    1.2990    0.0000 C   0  0  0  0  0  0  0  0  0  0  0  0
   -1.5000    2.5981    0.0000 Cl  0  0  0  0  0  0  0  0  0  0  0  0
    0.7500    1.2990    0.0000 C   0  0  0  0  0  0  0  0  0  0  0  0
    1.5000    2.5981    0.0000 O   0  0  0  0  0  0  0  0  0  0  0  0
  1  2  1  0
  2  3  2  0
  3  4  1  0
  4  5  1  0
  5  6  2  0
  6  7  1  0
  7  8  1  0
  8  9  2  0
  8 10  1  0
 10 11  1  0
 11 12  1  0
 12 13  1  0
 13 14  1  0
 14 15  1  0
 15 16  1  0
  4 17  2  0
 17 18  1  0
 18 19  1  0
 18 20  2  0
 20 21  1  0
 20  2  1  0
 16 11  1  0
M  END
>  <Compound_ID>  (12) 
C08014903

>  <Active>  (12) 
0

>  <Smiles>  (12) 
Oc1cc(/C=N/NC(=S)NC2CCCCC2)cc(Cl)c1O

>  <canonical_smi>  (12) 
Oc1cc(/C=N/NC(=S)NC2CCCCC2)cc(Cl)c1O

>  <Set>  (12) 
G2 inactive

>  <Set_type>  (12) 
Train

>  <MW>  (12) 
327.84

>  <HBD>  (12) 
4

>  <HBA>  (12) 
5

>  <NRB>  (12) 
3

>  <NR>  (12) 
2

>  <NAR>  (12) 
1

>  <PSA>  (12) 
76.88

>  <Standard Type>  (12) 
nan

>  <Standard Relation>  (12) 
nan

>  <Standard Units>  (12) 
nan

>  <Standard Value>  (12) 
nan

>  <Assay ChEMBL ID>  (12) 
nan

>  <Assay Description>  (12) 
nan

>  <BAO Label>  (12) 
nan

$$$$

     RDKit          2D

 20 21  0  0  0  0  0  0  0  0999 V2000
    8.7718   -5.5288    0.0000 C   0  0  0  0  0  0  0  0  0  0  0  0
    7.5583   -4.6471    0.0000 N   0  0  0  0  0  4  0  0  0  0  0  0
    7.5583   -3.1471    0.0000 C   0  0  0  0  0  0  0  0  0  0  0  0
    6.1317   -2.6836    0.0000 C   0  0  0  0  0  0  0  0  0  0  0  0
    5.2500   -3.8971    0.0000 C   0  0  0  0  0  0  0  0  0  0  0  0
    3.7500   -3.8971    0.0000 N   0  0  0  0  0  0  0  0  0  0  0  0
    3.0000   -2.5981    0.0000 C   0  0  0  0  0  0  0  0  0  0  0  0
    3.7500   -1.2990    0.0000 O   0  0  0  0  0  0  0  0  0  0  0  0
    1.5000   -2.5981    0.0000 N   0  0  0  0  0  0  0  0  0  0  0  0
    0.7500   -1.2990    0.0000 C   0  0  0  0  0  0  0  0  0  0  0  0
    1.5000    0.0000    0.0000 C   0  0  0  0  0  0  0  0  0  0  0  0
    3.0000    0.0000    0.0000 Br  0  0  0  0  0  0  0  0  0  0  0  0
    0.7500    1.2990    0.0000 C   0  0  0  0  0  0  0  0  0  0  0  0
   -0.7500    1.2990    0.0000 C   0  0  0  0  0  0  0  0  0  0  0  0
   -1.5000    0.0000    0.0000 C   0  0  0  0  0  0  0  0  0  0  0  0
   -0.7500   -1.2990    0.0000 C   0  0  0  0  0  0  0  0  0  0  0  0
   -1.5000   -2.5981    0.0000 C   0  0  0  0  0  0  0  0  0  0  0  0
   -0.7500   -3.8971    0.0000 O   0  0  0  0  0  0  0  0  0  0  0  0
   -3.0000   -2.5981    0.0000 O   0  0  0  0  0  1  0  0  0  0  0  0
    6.1317   -5.1106    0.0000 C   0  0  0  0  0  0  0  0  0  0  0  0
  1  2  1  0
  2  3  1  0
  3  4  1  0
  4  5  1  0
  5  6  1  1
  6  7  1  0
  7  8  2  0
  7  9  1  0
  9 10  1  0
 10 11  2  0
 11 12  1  0
 11 13  1  0
 13 14  2  0
 14 15  1  0
 15 16  2  0
 16 17  1  0
 17 18  2  0
 17 19  1  0
  5 20  1  0
 20  2  1  0
 16 10  1  0
M  CHG  2   2   1  19  -1
M  END
>  <Compound_ID>  (13) 
C62827261

>  <Active>  (13) 
0

>  <Smiles>  (13) 
C[NH+]1CC[C@H](NC(=O)Nc2c(Br)cccc2C(=O)[O-])C1

>  <canonical_smi>  (13) 
C[NH+]1CC[C@H](NC(=O)Nc2c(Br)cccc2C(=O)[O-])C1

>  <Set>  (13) 
G2 inactive

>  <Set_type>  (13) 
Train

>  <MW>  (13) 
342.19

>  <HBD>  (13) 
3

>  <HBA>  (13) 
3

>  <NRB>  (13) 
3

>  <NR>  (13) 
2

>  <NAR>  (13) 
1

>  <PSA>  (13) 
85.7

>  <Standard Type>  (13) 
nan

>  <Standard Relation>  (13) 
nan

>  <Standard Units>  (13) 
nan

>  <Standard Value>  (13) 
nan

>  <Assay ChEMBL ID>  (13) 
nan

>  <Assay Description>  (13) 
nan

>  <BAO Label>  (13) 
nan

$$$$

     RDKit          2D

 32 37  0  0  0  0  0  0  0  0999 V2000
    4.7779    9.2179    0.0000 C   0  0  0  0  0  0  0  0  0  0  0  0
    4.1678   10.5882    0.0000 C   0  0  0  0  0  0  0  0  0  0  0  0
    2.8687    9.8382    0.0000 C   0  0  0  0  0  0  0  0  0  0  0  0
    1.4984   10.4483    0.0000 C   0  0  0  0  0  0  0  0  0  0  0  0
    0.4947    9.3336    0.0000 C   0  0  0  0  0  0  0  0  0  0  0  0
    1.2447    8.0346    0.0000 C   0  0  0  0  0  0  0  0  0  0  0  0
    0.7812    6.6080    0.0000 C   0  0  0  0  0  0  0  0  0  0  0  0
   -0.6860    6.2961    0.0000 C   0  0  0  0  0  0  0  0  0  0  0  0
   -1.1496    4.8695    0.0000 C   0  0  0  0  0  0  0  0  0  0  0  0
   -0.1459    3.7548    0.0000 C   0  0  0  0  0  0  0  0  0  0  0  0
   -0.6094    2.3282    0.0000 C   0  0  0  0  0  0  0  0  0  0  0  0
    0.3943    1.2135    0.0000 C   0  0  0  0  0  0  0  0  0  0  0  0
    1.8615    1.5254    0.0000 C   0  0  0  0  0  0  0  0  0  0  0  0
    2.3250    2.9520    0.0000 C   0  0  0  0  0  0  0  0  0  0  0  0
    3.7923    3.2638    0.0000 N   0  0  0  0  0  0  0  0  0  0  0  0
    4.7960    2.1491    0.0000 O   0  0  0  0  0  0  0  0  0  0  0  0
    1.3213    4.0667    0.0000 C   0  0  0  0  0  0  0  0  0  0  0  0
    2.7886    4.3786    0.0000 C   0  0  0  0  0  0  0  0  0  0  0  0
    1.7849    5.4933    0.0000 C   0  0  0  0  0  0  0  0  0  0  0  0
    3.2521    5.8051    0.0000 C   0  0  0  0  0  0  0  0  0  0  0  0
    4.2558    4.6904    0.0000 O   0  0  0  0  0  0  0  0  0  0  0  0
    3.7156    7.2317    0.0000 C   0  0  0  0  0  0  0  0  0  0  0  0
    2.7119    8.3464    0.0000 C   0  0  0  0  0  0  0  0  0  0  0  0
    4.1385    8.8100    0.0000 C   0  0  0  0  0  0  0  0  0  0  0  0
    1.2760    0.0000    0.0000 O   0  0  0  0  0  0  0  0  0  0  0  0
    0.3943   -1.2135    0.0000 C   0  0  0  0  0  0  0  0  0  0  0  0
   -1.0323   -0.7500    0.0000 C   0  0  0  0  0  0  0  0  0  0  0  0
   -1.0323    0.7500    0.0000 O   0  0  0  0  0  0  0  0  0  0  0  0
    5.5943   11.0518    0.0000 O   0  0  0  0  0  0  0  0  0  0  0  0
    5.5943   12.5518    0.0000 C   0  0  0  0  0  0  0  0  0  0  0  0
    4.1678   13.0153    0.0000 C   0  0  0  0  0  0  0  0  0  0  0  0
    3.2861   11.8018    0.0000 O   0  0  0  0  0  0  0  0  0  0  0  0
  1  2  1  0
  3  2  1  6
  3  4  1  0
  4  5  1  0
  6  5  1  1
  6  7  1  0
  7  8  1  6
  8  9  1  0
 10  9  1  6
 10 11  1  0
 11 12  1  0
 12 13  1  0
 13 14  1  0
 14 15  2  0
 15 16  1  0
 14 17  1  0
 17 18  1  1
 17 19  1  0
 19 20  1  1
 20 21  1  6
 20 22  1  0
 22 23  1  0
 23 24  1  6
 12 25  1  0
 25 26  1  0
 26 27  1  0
 27 28  1  0
  2 29  1  0
 29 30  1  0
 30 31  1  0
 31 32  1  0
 32  2  1  0
 23  3  1  0
 23  6  1  0
 19  7  1  0
 17 10  1  0
 28 12  1  0
M  END
>  <Compound_ID>  (14) 
C00920324

>  <Active>  (14) 
0

>  <Smiles>  (14) 
CC1([C@H]2CC[C@@H]3[C@H]4CC[C@H]5CC6(C/C(=N\O)[C@@]5(C)[C@@H]4[C@@H](O)C[C@@]32C)OCCO6)OCCO1

>  <canonical_smi>  (14) 
CC1([C@H]2CC[C@@H]3[C@H]4CC[C@H]5CC6(C/C(=N\O)[C@@]5(C)[C@@H]4[C@@H](O)C[C@]23C)OCCO6)OCCO1

>  <Set>  (14) 
G2 inactive

>  <Set_type>  (14) 
Train

>  <MW>  (14) 
449.59

>  <HBD>  (14) 
2

>  <HBA>  (14) 
6

>  <NRB>  (14) 
1

>  <NR>  (14) 
6

>  <NAR>  (14) 
0

>  <PSA>  (14) 
89.74

>  <Standard Type>  (14) 
nan

>  <Standard Relation>  (14) 
nan

>  <Standard Units>  (14) 
nan

>  <Standard Value>  (14) 
nan

>  <Assay ChEMBL ID>  (14) 
nan

>  <Assay Description>  (14) 
nan

>  <BAO Label>  (14) 
nan

$$$$

     RDKit          2D

 25 28  0  0  0  0  0  0  0  0999 V2000
   -0.1430   -9.7958    0.0000 S   0  0  0  0  0  0  0  0  0  0  0  0
    0.8606   -8.6811    0.0000 C   0  0  0  0  0  0  0  0  0  0  0  0
    2.3524   -8.8379    0.0000 N   0  0  0  0  0  0  0  0  0  0  0  0
    2.9625   -7.4676    0.0000 N   0  0  0  0  0  0  0  0  0  0  0  0
    1.8478   -6.4639    0.0000 C   0  0  0  0  0  0  0  0  0  0  0  0
    2.0046   -4.9721    0.0000 C   0  0  0  0  0  0  0  0  0  0  0  0
    0.8899   -3.9684    0.0000 C   0  0  0  0  0  0  0  0  0  0  0  0
    1.5000   -2.5981    0.0000 C   0  0  0  0  0  0  0  0  0  0  0  0
    0.7500   -1.2990    0.0000 C   0  0  0  0  0  0  0  0  0  0  0  0
    1.5000    0.0000    0.0000 C   0  0  0  0  0  0  0  0  0  0  0  0
    0.7500    1.2990    0.0000 C   0  0  0  0  0  0  0  0  0  0  0  0
   -0.7500    1.2990    0.0000 C   0  0  0  0  0  0  0  0  0  0  0  0
   -1.5000    0.0000    0.0000 C   0  0  0  0  0  0  0  0  0  0  0  0
   -0.7500   -1.2990    0.0000 C   0  0  0  0  0  0  0  0  0  0  0  0
    2.9918   -2.7549    0.0000 N   0  0  0  0  0  0  0  0  0  0  0  0
    3.3037   -4.2221    0.0000 N   0  0  0  0  0  0  0  0  0  0  0  0
    0.5488   -7.2139    0.0000 N   0  0  0  0  0  0  0  0  0  0  0  0
   -0.8215   -6.6038    0.0000 N   0  0  0  0  0  0  0  0  0  0  0  0
   -2.0351   -7.4854    0.0000 C   0  0  0  0  0  0  0  0  0  0  0  0
   -3.4054   -6.8753    0.0000 C   0  0  0  0  0  0  0  0  0  0  0  0
   -4.7044   -7.6253    0.0000 C   0  0  0  0  0  0  0  0  0  0  0  0
   -5.8191   -6.6216    0.0000 C   0  0  0  0  0  0  0  0  0  0  0  0
   -5.2090   -5.2513    0.0000 C   0  0  0  0  0  0  0  0  0  0  0  0
   -5.9590   -3.9523    0.0000 Br  0  0  0  0  0  0  0  0  0  0  0  0
   -3.7172   -5.4081    0.0000 S   0  0  0  0  0  0  0  0  0  0  0  0
  2  1  1  6
  2  3  1  0
  3  4  1  0
  5  4  1  1
  5  6  1  0
  6  7  1  6
  7  8  2  0
  8  9  1  0
  9 10  2  0
 10 11  1  0
 11 12  2  0
 12 13  1  0
 13 14  2  0
  8 15  1  0
 15 16  2  0
  5 17  1  0
 17 18  1  0
 18 19  2  0
 19 20  1  0
 20 21  2  0
 21 22  1  0
 22 23  2  0
 23 24  1  0
 23 25  1  0
 17  2  1  0
 25 20  1  0
 16  6  1  0
 14  9  1  0
M  END
>  <Compound_ID>  (15) 
C38971365

>  <Active>  (15) 
0

>  <Smiles>  (15) 
S[C@H]1NN[C@H]([C@@H]2C=C(c3ccccc3)N=N2)N1/N=C/c1ccc(Br)s1

>  <canonical_smi>  (15) 
S[C@H]1NN[C@H]([C@@H]2C=C(c3ccccc3)N=N2)N1/N=C/c1ccc(Br)s1

>  <Set>  (15) 
G2 inactive

>  <Set_type>  (15) 
Train

>  <MW>  (15) 
435.38

>  <HBD>  (15) 
3

>  <HBA>  (15) 
3

>  <NRB>  (15) 
4

>  <NR>  (15) 
4

>  <NAR>  (15) 
2

>  <PSA>  (15) 
64.38

>  <Standard Type>  (15) 
nan

>  <Standard Relation>  (15) 
nan

>  <Standard Units>  (15) 
nan

>  <Standard Value>  (15) 
nan

>  <Assay ChEMBL ID>  (15) 
nan

>  <Assay Description>  (15) 
nan

>  <BAO Label>  (15) 
nan

$$$$

     RDKit          2D

 31 35  0  0  0  0  0  0  0  0999 V2000
    3.0000    0.0000    0.0000 C   0  0  0  0  0  0  0  0  0  0  0  0
    1.5000    0.0000    0.0000 C   0  0  0  0  0  0  0  0  0  0  0  0
    0.7500   -1.2990    0.0000 C   0  0  0  0  0  0  0  0  0  0  0  0
   -0.7500   -1.2990    0.0000 C   0  0  0  0  0  0  0  0  0  0  0  0
   -1.5000   -2.5981    0.0000 O   0  0  0  0  0  1  0  0  0  0  0  0
   -1.5000    0.0000    0.0000 N   0  0  0  0  0  0  0  0  0  0  0  0
   -0.7500    1.2990    0.0000 C   0  0  0  0  0  0  0  0  0  0  0  0
   -1.5000    2.5981    0.0000 N   0  0  0  0  0  0  0  0  0  0  0  0
   -3.0000    2.5981    0.0000 C   0  0  0  0  0  0  0  0  0  0  0  0
   -3.7500    3.8971    0.0000 N   0  0  0  0  0  0  0  0  0  0  0  0
   -3.0000    5.1962    0.0000 C   0  0  0  0  0  0  0  0  0  0  0  0
   -3.7500    6.4952    0.0000 C   0  0  0  0  0  0  0  0  0  0  0  0
   -5.2500    6.4952    0.0000 N   0  0  0  0  0  0  0  0  0  0  0  0
   -6.0000    7.7942    0.0000 C   0  0  0  0  0  0  0  0  0  0  0  0
   -5.2500    9.0933    0.0000 C   0  0  0  0  0  0  0  0  0  0  0  0
   -6.0000   10.3923    0.0000 C   0  0  0  0  0  0  0  0  0  0  0  0
   -7.5000   10.3923    0.0000 C   0  0  0  0  0  0  0  0  0  0  0  0
   -8.2500    9.0933    0.0000 C   0  0  0  0  0  0  0  0  0  0  0  0
   -7.5000    7.7942    0.0000 C   0  0  0  0  0  0  0  0  0  0  0  0
   -6.0000    5.1962    0.0000 C   0  0  0  0  0  0  0  0  0  0  0  0
   -5.2500    3.8971    0.0000 C   0  0  0  0  0  0  0  0  0  0  0  0
   -3.7500    1.2990    0.0000 N   0  0  0  0  0  4  0  0  0  0  0  0
   -3.0000    0.0000    0.0000 C   0  0  0  0  0  0  0  0  0  0  0  0
   -3.7500   -1.2990    0.0000 C   0  0  0  0  0  0  0  0  0  0  0  0
   -5.2500   -1.2990    0.0000 C   0  0  0  0  0  0  0  0  0  0  0  0
   -6.0000   -2.5981    0.0000 C   0  0  0  0  0  0  0  0  0  0  0  0
   -5.2500   -3.8971    0.0000 C   0  0  0  0  0  0  0  0  0  0  0  0
   -6.0000   -5.1962    0.0000 Cl  0  0  0  0  0  0  0  0  0  0  0  0
   -3.7500   -3.8971    0.0000 C   0  0  0  0  0  0  0  0  0  0  0  0
   -3.0000   -2.5981    0.0000 C   0  0  0  0  0  0  0  0  0  0  0  0
    0.7500    1.2990    0.0000 N   0  0  0  0  0  0  0  0  0  0  0  0
  1  2  2  0
  2  3  1  0
  3  4  2  0
  4  5  1  0
  4  6  1  0
  6  7  1  0
  7  8  2  0
  8  9  1  0
  9 10  1  0
 10 11  1  0
 11 12  1  0
 12 13  1  0
 13 14  1  0
 14 15  2  0
 15 16  1  0
 16 17  2  0
 17 18  1  0
 18 19  2  0
 13 20  1  0
 20 21  1  0
  9 22  2  0
 22 23  1  0
 23 24  1  1
 24 25  2  0
 25 26  1  0
 26 27  2  0
 27 28  1  0
 27 29  1  0
 29 30  2  0
  7 31  1  0
 31  2  1  0
 23  6  1  0
 30 24  1  0
 21 10  1  0
 19 14  1  0
M  CHG  2   5  -1  22   1
M  END
>  <Compound_ID>  (16) 
C49937151

>  <Active>  (16) 
0

>  <Smiles>  (16) 
C=C1C=C([O-])N2C(=NC(N3CCN(c4ccccc4)CC3)=[NH+][C@@H]2c2ccc(Cl)cc2)N1

>  <canonical_smi>  (16) 
C=C1C=C([O-])N2C(=NC(N3CCN(c4ccccc4)CC3)=[NH+][C@@H]2c2ccc(Cl)cc2)N1

>  <Set>  (16) 
G2 inactive

>  <Set_type>  (16) 
Train

>  <MW>  (16) 
434.93

>  <HBD>  (16) 
2

>  <HBA>  (16) 
5

>  <NRB>  (16) 
2

>  <NR>  (16) 
5

>  <NAR>  (16) 
2

>  <PSA>  (16) 
71.14

>  <Standard Type>  (16) 
nan

>  <Standard Relation>  (16) 
nan

>  <Standard Units>  (16) 
nan

>  <Standard Value>  (16) 
nan

>  <Assay ChEMBL ID>  (16) 
nan

>  <Assay Description>  (16) 
nan

>  <BAO Label>  (16) 
nan

$$$$

     RDKit          2D

 29 32  0  0  0  0  0  0  0  0999 V2000
    3.0000   -3.6962    0.0000 O   0  0  0  0  0  0  0  0  0  0  0  0
    3.0000   -5.1962    0.0000 S   0  0  0  0  0  0  0  0  0  0  0  0
    3.0000   -6.6962    0.0000 O   0  0  0  0  0  0  0  0  0  0  0  0
    1.5000   -5.1962    0.0000 N   0  0  0  0  0  0  0  0  0  0  0  0
    0.7500   -3.8971    0.0000 C   0  0  0  0  0  0  0  0  0  0  0  0
    1.5000   -2.5981    0.0000 N   0  0  0  0  0  4  0  0  0  0  0  0
    0.7500   -1.2990    0.0000 C   0  0  0  0  0  0  0  0  0  0  0  0
    1.5000    0.0000    0.0000 C   0  0  0  0  0  0  0  0  0  0  0  0
    0.7500    1.2990    0.0000 C   0  0  0  0  0  0  0  0  0  0  0  0
   -0.7500    1.2990    0.0000 C   0  0  0  0  0  0  0  0  0  0  0  0
   -1.5000    0.0000    0.0000 C   0  0  0  0  0  0  0  0  0  0  0  0
   -0.7500   -1.2990    0.0000 C   0  0  0  0  0  0  0  0  0  0  0  0
   -1.5000   -2.5981    0.0000 N   0  0  0  0  0  4  0  0  0  0  0  0
   -0.7500   -3.8971    0.0000 C   0  0  0  0  0  0  0  0  0  0  0  0
   -1.5000   -5.1962    0.0000 N   0  0  0  0  0  0  0  0  0  0  0  0
   -3.0000   -5.1962    0.0000 C   0  0  0  0  0  0  0  0  0  0  0  0
   -3.7500   -3.8971    0.0000 C   0  0  0  0  0  0  0  0  0  0  0  0
   -5.2500   -3.8971    0.0000 C   0  0  0  0  0  0  0  0  0  0  0  0
   -6.0000   -5.1962    0.0000 C   0  0  0  0  0  0  0  0  0  0  0  0
   -7.5000   -5.1962    0.0000 Br  0  0  0  0  0  0  0  0  0  0  0  0
   -5.2500   -6.4952    0.0000 C   0  0  0  0  0  0  0  0  0  0  0  0
   -3.7500   -6.4952    0.0000 C   0  0  0  0  0  0  0  0  0  0  0  0
   -3.0000   -7.7942    0.0000 F   0  0  0  0  0  0  0  0  0  0  0  0
    4.5000   -5.1962    0.0000 C   0  0  0  0  0  0  0  0  0  0  0  0
    5.2500   -6.4952    0.0000 C   0  0  0  0  0  0  0  0  0  0  0  0
    6.7500   -6.4952    0.0000 C   0  0  0  0  0  0  0  0  0  0  0  0
    7.5000   -5.1962    0.0000 C   0  0  0  0  0  0  0  0  0  0  0  0
    6.7500   -3.8971    0.0000 C   0  0  0  0  0  0  0  0  0  0  0  0
    5.2500   -3.8971    0.0000 C   0  0  0  0  0  0  0  0  0  0  0  0
  1  2  2  0
  2  3  2  0
  2  4  1  0
  4  5  2  0
  5  6  1  0
  6  7  2  0
  7  8  1  0
  8  9  2  0
  9 10  1  0
 10 11  2  0
 11 12  1  0
 12 13  2  0
 13 14  1  0
 14 15  1  1
 15 16  1  0
 16 17  2  0
 17 18  1  0
 18 19  2  0
 19 20  1  0
 19 21  1  0
 21 22  2  0
 22 23  1  0
  2 24  1  0
 24 25  2  0
 25 26  1  0
 26 27  2  0
 27 28  1  0
 28 29  2  0
 14  5  1  0
 22 16  1  0
 29 24  1  0
 12  7  1  0
M  CHG  2   6   1  13   1
M  END
>  <Compound_ID>  (17) 
C38965263

>  <Active>  (17) 
0

>  <Smiles>  (17) 
O=S(=O)(/N=C1\[NH+]=c2ccccc2=[NH+][C@@H]1Nc1ccc(Br)cc1F)c1ccccc1

>  <canonical_smi>  (17) 
O=S(=O)(/N=C1\[NH+]=c2ccccc2=[NH+][C@@H]1Nc1ccc(Br)cc1F)c1ccccc1

>  <Set>  (17) 
G2 inactive

>  <Set_type>  (17) 
Train

>  <MW>  (17) 
475.34

>  <HBD>  (17) 
3

>  <HBA>  (17) 
3

>  <NRB>  (17) 
4

>  <NR>  (17) 
4

>  <NAR>  (17) 
3

>  <PSA>  (17) 
86.47

>  <Standard Type>  (17) 
nan

>  <Standard Relation>  (17) 
nan

>  <Standard Units>  (17) 
nan

>  <Standard Value>  (17) 
nan

>  <Assay ChEMBL ID>  (17) 
nan

>  <Assay Description>  (17) 
nan

>  <BAO Label>  (17) 
nan

$$$$

     RDKit          2D

 25 26  0  0  0  0  0  0  0  0999 V2000
    3.0000    0.0000    0.0000 C   0  0  0  0  0  0  0  0  0  0  0  0
    1.5000    0.0000    0.0000 C   0  0  0  0  0  0  0  0  0  0  0  0
    0.7500   -1.2990    0.0000 C   0  0  0  0  0  0  0  0  0  0  0  0
    1.5000   -2.5981    0.0000 C   0  0  0  0  0  0  0  0  0  0  0  0
   -0.7500   -1.2990    0.0000 C   0  0  0  0  0  0  0  0  0  0  0  0
   -1.5000   -2.5981    0.0000 C   0  0  0  0  0  0  0  0  0  0  0  0
   -1.5000    0.0000    0.0000 C   0  0  0  0  0  0  0  0  0  0  0  0
   -3.0000    0.0000    0.0000 S   0  0  0  0  0  0  0  0  0  0  0  0
   -3.0000    1.5000    0.0000 O   0  0  0  0  0  0  0  0  0  0  0  0
   -3.0000   -1.5000    0.0000 O   0  0  0  0  0  0  0  0  0  0  0  0
   -4.5000    0.0000    0.0000 N   0  0  0  0  0  0  0  0  0  0  0  0
   -5.2500   -1.2990    0.0000 N   0  0  0  0  0  0  0  0  0  0  0  0
   -6.7500   -1.2990    0.0000 C   0  0  0  0  0  0  0  0  0  0  0  0
   -7.5000    0.0000    0.0000 O   0  0  0  0  0  0  0  0  0  0  0  0
   -7.5000   -2.5981    0.0000 C   0  0  0  0  0  0  0  0  0  0  0  0
   -6.8899   -3.9684    0.0000 C   0  0  0  0  0  0  0  0  0  0  0  0
   -8.0046   -4.9721    0.0000 C   0  0  0  0  0  0  0  0  0  0  0  0
   -9.3037   -4.2221    0.0000 S   0  0  0  0  0  0  0  0  0  0  0  0
   -9.9138   -5.5924    0.0000 O   0  0  0  0  0  0  0  0  0  0  0  0
  -10.7302   -3.7586    0.0000 O   0  0  0  0  0  0  0  0  0  0  0  0
   -8.9918   -2.7549    0.0000 C   0  0  0  0  0  0  0  0  0  0  0  0
   -0.7500    1.2990    0.0000 C   0  0  0  0  0  0  0  0  0  0  0  0
   -1.5000    2.5981    0.0000 C   0  0  0  0  0  0  0  0  0  0  0  0
    0.7500    1.2990    0.0000 C   0  0  0  0  0  0  0  0  0  0  0  0
    1.5000    2.5981    0.0000 C   0  0  0  0  0  0  0  0  0  0  0  0
  1  2  1  0
  2  3  2  0
  3  4  1  0
  3  5  1  0
  5  6  1  0
  5  7  2  0
  7  8  1  0
  8  9  2  0
  8 10  2  0
  8 11  1  0
 11 12  1  0
 12 13  1  0
 13 14  2  0
 15 13  1  6
 15 16  1  0
 16 17  1  0
 17 18  1  0
 18 19  2  0
 18 20  2  0
 18 21  1  0
  7 22  1  0
 22 23  1  0
 22 24  2  0
 24 25  1  0
 24  2  1  0
 21 15  1  0
M  END
>  <Compound_ID>  (18) 
C07728708

>  <Active>  (18) 
0

>  <Smiles>  (18) 
Cc1c(C)c(C)c(S(=O)(=O)NNC(=O)[C@@H]2CCS(=O)(=O)C2)c(C)c1C

>  <canonical_smi>  (18) 
Cc1c(C)c(C)c(S(=O)(=O)NNC(=O)[C@@H]2CCS(=O)(=O)C2)c(C)c1C

>  <Set>  (18) 
G2 inactive

>  <Set_type>  (18) 
Train

>  <MW>  (18) 
388.51

>  <HBD>  (18) 
2

>  <HBA>  (18) 
5

>  <NRB>  (18) 
4

>  <NR>  (18) 
2

>  <NAR>  (18) 
1

>  <PSA>  (18) 
109.41

>  <Standard Type>  (18) 
nan

>  <Standard Relation>  (18) 
nan

>  <Standard Units>  (18) 
nan

>  <Standard Value>  (18) 
nan

>  <Assay ChEMBL ID>  (18) 
nan

>  <Assay Description>  (18) 
nan

>  <BAO Label>  (18) 
nan

$$$$

     RDKit          2D

 21 22  0  0  0  0  0  0  0  0999 V2000
    6.0000   -2.5981    0.0000 C   0  0  0  0  0  0  0  0  0  0  0  0
    5.2500   -1.2990    0.0000 C   0  0  0  0  0  0  0  0  0  0  0  0
    3.7500   -1.2990    0.0000 O   0  0  0  0  0  0  0  0  0  0  0  0
    3.0000    0.0000    0.0000 C   0  0  0  0  0  0  0  0  0  0  0  0
    3.7500    1.2990    0.0000 O   0  0  0  0  0  0  0  0  0  0  0  0
    1.5000    0.0000    0.0000 C   0  0  0  0  0  0  0  0  0  0  0  0
    0.7500   -1.2990    0.0000 C   0  0  0  0  0  0  0  0  0  0  0  0
   -0.7500   -1.2990    0.0000 C   0  0  0  0  0  0  0  0  0  0  0  0
   -1.5000    0.0000    0.0000 C   0  0  0  0  0  0  0  0  0  0  0  0
   -0.7500    1.2990    0.0000 N   0  0  0  0  0  4  0  0  0  0  0  0
   -1.5000    2.5981    0.0000 C   0  0  0  0  0  0  0  0  0  0  0  0
   -0.7500    3.8971    0.0000 C   0  0  0  0  0  0  0  0  0  0  0  0
   -1.5000    5.1962    0.0000 C   0  0  0  0  0  0  0  0  0  0  0  0
   -0.7500    6.4952    0.0000 C   0  0  0  0  0  0  0  0  0  0  0  0
    0.7500    6.4952    0.0000 C   0  0  0  0  0  0  0  0  0  0  0  0
   -3.0000    5.1962    0.0000 C   0  0  0  0  0  0  0  0  0  0  0  0
   -3.7500    3.8971    0.0000 C   0  0  0  0  0  0  0  0  0  0  0  0
   -3.0000    2.5981    0.0000 C   0  0  0  0  0  0  0  0  0  0  0  0
   -3.7500    1.2990    0.0000 C   0  0  0  0  0  0  0  0  0  0  0  0
   -4.5000    0.0000    0.0000 N   0  0  0  0  0  0  0  0  0  0  0  0
    0.7500    1.2990    0.0000 C   0  0  0  0  0  0  0  0  0  0  0  0
  1  2  1  0
  2  3  1  0
  3  4  1  0
  4  5  2  0
  6  4  1  1
  6  7  1  0
  7  8  1  0
  8  9  1  0
  9 10  1  0
 11 10  1  1
 11 12  1  0
 12 13  1  0
 13 14  1  1
 14 15  1  0
 13 16  1  0
 16 17  1  0
 17 18  1  0
 18 19  1  1
 19 20  3  0
 10 21  1  0
 21  6  1  0
 18 11  1  0
M  CHG  1  10   1
M  END
>  <Compound_ID>  (19) 
C37146531

>  <Active>  (19) 
0

>  <Smiles>  (19) 
CCOC(=O)[C@H]1CCC[NH+]([C@@H]2C[C@H](CC)CC[C@@H]2C#N)C1

>  <canonical_smi>  (19) 
CCOC(=O)[C@H]1CCC[NH+]([C@@H]2C[C@H](CC)CC[C@@H]2C#N)C1

>  <Set>  (19) 
G2 inactive

>  <Set_type>  (19) 
Train

>  <MW>  (19) 
293.43

>  <HBD>  (19) 
1

>  <HBA>  (19) 
3

>  <NRB>  (19) 
4

>  <NR>  (19) 
2

>  <NAR>  (19) 
0

>  <PSA>  (19) 
54.53

>  <Standard Type>  (19) 
nan

>  <Standard Relation>  (19) 
nan

>  <Standard Units>  (19) 
nan

>  <Standard Value>  (19) 
nan

>  <Assay ChEMBL ID>  (19) 
nan

>  <Assay Description>  (19) 
nan

>  <BAO Label>  (19) 
nan

$$$$

     RDKit          2D

 28 30  0  0  0  0  0  0  0  0999 V2000
    3.7500   -1.2990    0.0000 C   0  0  0  0  0  0  0  0  0  0  0  0
    3.0000    0.0000    0.0000 C   0  0  0  0  0  0  0  0  0  0  0  0
    1.5000    0.0000    0.0000 C   0  0  0  0  0  0  0  0  0  0  0  0
    0.7500   -1.2990    0.0000 C   0  0  0  0  0  0  0  0  0  0  0  0
   -0.7500   -1.2990    0.0000 C   0  0  0  0  0  0  0  0  0  0  0  0
   -1.5000    0.0000    0.0000 C   0  0  0  0  0  0  0  0  0  0  0  0
   -0.7500    1.2990    0.0000 C   0  0  0  0  0  0  0  0  0  0  0  0
    0.7500    1.2990    0.0000 C   0  0  0  0  0  0  0  0  0  0  0  0
    1.5000    2.5981    0.0000 N   0  0  0  0  0  0  0  0  0  0  0  0
    0.7500    3.8971    0.0000 C   0  0  0  0  0  0  0  0  0  0  0  0
   -0.7500    3.8971    0.0000 O   0  0  0  0  0  0  0  0  0  0  0  0
    1.5000    5.1962    0.0000 C   0  0  0  0  0  0  0  0  0  0  0  0
    0.7500    6.4952    0.0000 N   0  0  0  0  0  0  0  0  0  0  0  0
    1.5000    7.7942    0.0000 C   0  0  0  0  0  0  0  0  0  0  0  0
    3.0000    7.7942    0.0000 O   0  0  0  0  0  0  0  0  0  0  0  0
    0.7500    9.0933    0.0000 C   0  0  0  0  0  0  0  0  0  0  0  0
    1.5000   10.3923    0.0000 N   0  0  0  0  0  0  0  0  0  0  0  0
    3.0000   10.3923    0.0000 C   0  0  0  0  0  0  0  0  0  0  0  0
    3.7500   11.6913    0.0000 C   0  0  0  0  0  0  0  0  0  0  0  0
    3.0000   12.9904    0.0000 N   0  0  0  0  0  0  0  0  0  0  0  0
    3.7500   14.2894    0.0000 C   0  0  0  0  0  0  0  0  0  0  0  0
    5.2500   14.2894    0.0000 C   0  0  0  0  0  0  0  0  0  0  0  0
    6.0000   15.5885    0.0000 C   0  0  0  0  0  0  0  0  0  0  0  0
    5.2500   16.8875    0.0000 C   0  0  0  0  0  0  0  0  0  0  0  0
    3.7500   16.8875    0.0000 C   0  0  0  0  0  0  0  0  0  0  0  0
    3.0000   15.5885    0.0000 N   0  0  0  0  0  4  0  0  0  0  0  0
    1.5000   12.9904    0.0000 C   0  0  0  0  0  0  0  0  0  0  0  0
    0.7500   11.6913    0.0000 C   0  0  0  0  0  0  0  0  0  0  0  0
  1  2  1  0
  2  3  1  0
  3  4  2  0
  4  5  1  0
  5  6  2  0
  6  7  1  0
  7  8  2  0
  8  9  1  0
  9 10  1  0
 10 11  2  0
 10 12  1  0
 12 13  1  0
 13 14  1  0
 14 15  2  0
 14 16  1  0
 16 17  1  0
 17 18  1  0
 18 19  1  0
 19 20  1  0
 20 21  1  0
 21 22  2  0
 22 23  1  0
 23 24  2  0
 24 25  1  0
 25 26  2  0
 20 27  1  0
 27 28  1  0
  8  3  1  0
 28 17  1  0
 26 21  1  0
M  CHG  1  26   1
M  END
>  <Compound_ID>  (20) 
C38234348

>  <Active>  (20) 
0

>  <Smiles>  (20) 
CCc1ccccc1NC(=O)CNC(=O)CN1CCN(c2cccc[nH+]2)CC1

>  <canonical_smi>  (20) 
CCc1ccccc1NC(=O)CNC(=O)CN1CCN(c2cccc[nH+]2)CC1

>  <Set>  (20) 
G2 inactive

>  <Set_type>  (20) 
Train

>  <MW>  (20) 
382.49

>  <HBD>  (20) 
2

>  <HBA>  (20) 
4

>  <NRB>  (20) 
7

>  <NR>  (20) 
3

>  <NAR>  (20) 
2

>  <PSA>  (20) 
78.82

>  <Standard Type>  (20) 
nan

>  <Standard Relation>  (20) 
nan

>  <Standard Units>  (20) 
nan

>  <Standard Value>  (20) 
nan

>  <Assay ChEMBL ID>  (20) 
nan

>  <Assay Description>  (20) 
nan

>  <BAO Label>  (20) 
nan

$$$$

     RDKit          2D

 30 32  0  0  0  0  0  0  0  0999 V2000
    5.2077    1.4153    0.0000 C   0  0  0  0  0  0  0  0  0  0  0  0
    4.0586    0.4512    0.0000 C   0  0  0  0  0  0  0  0  0  0  0  0
    2.6491    0.9642    0.0000 C   0  0  0  0  0  0  0  0  0  0  0  0
    1.5000    0.0000    0.0000 C   0  0  0  0  0  0  0  0  0  0  0  0
    2.6491   -0.9642    0.0000 O   0  0  0  0  0  0  0  0  0  0  0  0
    0.7500   -1.2990    0.0000 C   0  0  0  0  0  0  0  0  0  0  0  0
    1.5000   -2.5981    0.0000 C   0  0  0  0  0  0  0  0  0  0  0  0
   -0.7500   -1.2990    0.0000 C   0  0  0  0  0  0  0  0  0  0  0  0
   -1.5000   -2.5981    0.0000 C   0  0  0  0  0  0  0  0  0  0  0  0
   -3.0000   -2.5981    0.0000 C   0  0  0  0  0  0  0  0  0  0  0  0
   -3.7500   -3.8971    0.0000 C   0  0  0  0  0  0  0  0  0  0  0  0
   -3.0000   -5.1962    0.0000 C   0  0  0  0  0  0  0  0  0  0  0  0
   -3.7500   -6.4952    0.0000 N   0  0  0  0  0  0  0  0  0  0  0  0
   -5.2500   -6.4952    0.0000 C   0  0  0  0  0  0  0  0  0  0  0  0
   -3.0000   -7.7942    0.0000 C   0  0  0  0  0  0  0  0  0  0  0  0
   -1.5000   -5.1962    0.0000 C   0  0  0  0  0  0  0  0  0  0  0  0
   -0.7500   -3.8971    0.0000 C   0  0  0  0  0  0  0  0  0  0  0  0
   -1.5000    0.0000    0.0000 N   0  0  0  0  0  4  0  0  0  0  0  0
   -0.7500    1.2990    0.0000 C   0  0  0  0  0  0  0  0  0  0  0  0
   -1.5000    2.5981    0.0000 C   0  0  0  0  0  0  0  0  0  0  0  0
   -0.7500    3.8971    0.0000 C   0  0  0  0  0  0  0  0  0  0  0  0
   -1.5000    5.1962    0.0000 C   0  0  0  0  0  0  0  0  0  0  0  0
   -3.0000    5.1962    0.0000 C   0  0  0  0  0  0  0  0  0  0  0  0
   -3.7500    6.4952    0.0000 N   0  0  0  0  0  0  0  0  0  0  0  0
   -3.0000    7.7942    0.0000 C   0  0  0  0  0  0  0  0  0  0  0  0
   -5.2500    6.4952    0.0000 C   0  0  0  0  0  0  0  0  0  0  0  0
   -3.7500    3.8971    0.0000 C   0  0  0  0  0  0  0  0  0  0  0  0
   -3.0000    2.5981    0.0000 C   0  0  0  0  0  0  0  0  0  0  0  0
    0.7500    1.2990    0.0000 C   0  0  0  0  0  0  0  0  0  0  0  0
    1.5000    2.5981    0.0000 C   0  0  0  0  0  0  0  0  0  0  0  0
  1  2  1  0
  2  3  1  0
  3  4  1  0
  4  5  1  0
  4  6  1  0
  6  7  1  1
  6  8  1  0
  8  9  1  1
  9 10  2  0
 10 11  1  0
 11 12  2  0
 12 13  1  0
 13 14  1  0
 13 15  1  0
 12 16  1  0
 16 17  2  0
  8 18  1  0
 18 19  1  0
 19 20  1  1
 20 21  2  0
 21 22  1  0
 22 23  2  0
 23 24  1  0
 24 25  1  0
 24 26  1  0
 23 27  1  0
 27 28  2  0
 19 29  1  0
 29 30  1  6
 29  4  1  0
 17  9  1  0
 28 20  1  0
M  CHG  1  18   1
M  END
>  <Compound_ID>  (21) 
C01299189

>  <Active>  (21) 
0

>  <Smiles>  (21) 
CCCC1(O)[C@@H](C)[C@@H](c2ccc(N(C)C)cc2)[NH2+][C@@H](c2ccc(N(C)C)cc2)[C@@H]1C

>  <canonical_smi>  (21) 
CCCC1(O)[C@@H](C)[C@@H](c2ccc(N(C)C)cc2)[NH2+][C@@H](c2ccc(N(C)C)cc2)[C@@H]1C

>  <Set>  (21) 
G2 inactive

>  <Set_type>  (21) 
Train

>  <MW>  (21) 
410.63

>  <HBD>  (21) 
2

>  <HBA>  (21) 
3

>  <NRB>  (21) 
6

>  <NR>  (21) 
3

>  <NAR>  (21) 
2

>  <PSA>  (21) 
43.32

>  <Standard Type>  (21) 
nan

>  <Standard Relation>  (21) 
nan

>  <Standard Units>  (21) 
nan

>  <Standard Value>  (21) 
nan

>  <Assay ChEMBL ID>  (21) 
nan

>  <Assay Description>  (21) 
nan

>  <BAO Label>  (21) 
nan

$$$$

     RDKit          2D

 29 33  0  0  0  0  0  0  0  0999 V2000
    3.7500   -1.2990    0.0000 C   0  0  0  0  0  0  0  0  0  0  0  0
    3.0000    0.0000    0.0000 O   0  0  0  0  0  0  0  0  0  0  0  0
    1.5000    0.0000    0.0000 C   0  0  0  0  0  0  0  0  0  0  0  0
    0.7500   -1.2990    0.0000 C   0  0  0  0  0  0  0  0  0  0  0  0
   -0.7500   -1.2990    0.0000 C   0  0  0  0  0  0  0  0  0  0  0  0
   -1.5000    0.0000    0.0000 C   0  0  0  0  0  0  0  0  0  0  0  0
   -0.7500    1.2990    0.0000 C   0  0  0  0  0  0  0  0  0  0  0  0
    0.7500    1.2990    0.0000 C   0  0  0  0  0  0  0  0  0  0  0  0
   -1.5000    2.5981    0.0000 N   0  0  0  0  0  4  0  0  0  0  0  0
   -3.0000    2.5981    0.0000 C   0  0  0  0  0  0  0  0  0  0  0  0
   -3.7500    3.8971    0.0000 O   0  0  0  0  0  0  0  0  0  0  0  0
   -3.7500    1.2990    0.0000 C   0  0  0  0  0  0  0  0  0  0  0  0
   -5.2500    1.2990    0.0000 C   0  0  0  0  0  0  0  0  0  0  0  0
   -6.1317    2.5126    0.0000 N   0  0  0  0  0  0  0  0  0  0  0  0
   -7.5583    2.0490    0.0000 C   0  0  0  0  0  0  0  0  0  0  0  0
   -8.8573    2.7990    0.0000 C   0  0  0  0  0  0  0  0  0  0  0  0
  -10.1563    2.0490    0.0000 C   0  0  0  0  0  0  0  0  0  0  0  0
  -10.1563    0.5490    0.0000 C   0  0  0  0  0  0  0  0  0  0  0  0
   -8.8573   -0.2010    0.0000 C   0  0  0  0  0  0  0  0  0  0  0  0
   -7.5583    0.5490    0.0000 N   0  0  0  0  0  0  0  0  0  0  0  0
   -6.1317    0.0855    0.0000 C   0  0  0  0  0  0  0  0  0  0  0  0
   -5.6682   -1.3411    0.0000 N   0  0  0  0  0  4  0  0  0  0  0  0
   -6.6718   -2.4558    0.0000 C   0  0  0  0  0  0  0  0  0  0  0  0
   -6.2083   -3.8824    0.0000 C   0  0  0  0  0  0  0  0  0  0  0  0
   -4.7817   -4.3459    0.0000 C   0  0  0  0  0  0  0  0  0  0  0  0
   -4.7817   -5.8459    0.0000 C   0  0  0  0  0  0  0  0  0  0  0  0
   -6.2083   -6.3094    0.0000 C   0  0  0  0  0  0  0  0  0  0  0  0
   -7.0900   -5.0959    0.0000 O   0  0  0  0  0  0  0  0  0  0  0  0
   -3.0000    0.0000    0.0000 C   0  0  0  0  0  0  0  0  0  0  0  0
  1  2  1  0
  2  3  1  0
  3  4  1  0
  4  5  2  0
  5  6  1  0
  6  7  1  0
  7  8  1  0
  7  9  2  0
  9 10  1  0
 10 11  2  0
 10 12  1  0
 12 13  1  0
 13 14  1  6
 14 15  2  0
 15 16  1  0
 16 17  2  0
 17 18  1  0
 18 19  2  0
 19 20  1  0
 20 21  1  0
 21 22  1  6
 22 23  1  0
 24 23  1  6
 24 25  1  0
 25 26  1  0
 26 27  1  0
 27 28  1  0
 12 29  1  1
  8  3  2  0
 21 13  1  0
 28 24  1  0
 29  6  2  0
 20 15  1  0
M  CHG  2   9   1  22   1
M  END
>  <Compound_ID>  (22) 
C39980696

>  <Active>  (22) 
0

>  <Smiles>  (22) 
COc1ccc2c(c1)=[NH+]C(=O)[C@H]([C@H]1N=C3C=CC=CN3[C@H]1[NH2+]C[C@@H]1CCCO1)C=2

>  <canonical_smi>  (22) 
COc1ccc2c(c1)=[NH+]C(=O)[C@H]([C@H]1N=C3C=CC=CN3[C@H]1[NH2+]C[C@@H]1CCCO1)C=2

>  <Set>  (22) 
G2 inactive

>  <Set_type>  (22) 
Train

>  <MW>  (22) 
394.48

>  <HBD>  (22) 
2

>  <HBA>  (22) 
4

>  <NRB>  (22) 
5

>  <NR>  (22) 
5

>  <NAR>  (22) 
1

>  <PSA>  (22) 
81.71

>  <Standard Type>  (22) 
nan

>  <Standard Relation>  (22) 
nan

>  <Standard Units>  (22) 
nan

>  <Standard Value>  (22) 
nan

>  <Assay ChEMBL ID>  (22) 
nan

>  <Assay Description>  (22) 
nan

>  <BAO Label>  (22) 
nan

$$$$

     RDKit          2D

 16 17  0  0  0  0  0  0  0  0999 V2000
    2.7760    0.0000    0.0000 O   0  0  0  0  0  0  0  0  0  0  0  0
    1.2760    0.0000    0.0000 C   0  0  0  0  0  0  0  0  0  0  0  0
    0.3943    1.2135    0.0000 S   0  0  0  0  0  0  0  0  0  0  0  0
   -1.0323    0.7500    0.0000 C   0  0  0  0  0  0  0  0  0  0  0  0
   -2.3313    1.5000    0.0000 C   0  0  0  0  0  0  0  0  0  0  0  0
   -2.3313    3.0000    0.0000 Cl  0  0  0  0  0  0  0  0  0  0  0  0
   -3.6304    0.7500    0.0000 N   0  0  0  0  0  0  0  0  0  0  0  0
   -3.6304   -0.7500    0.0000 C   0  0  0  0  0  0  0  0  0  0  0  0
   -4.9294   -1.5000    0.0000 C   0  0  0  0  0  0  0  0  0  0  0  0
   -6.2284   -2.2500    0.0000 Cl  0  0  0  0  0  0  0  0  0  0  0  0
   -5.6794   -0.2010    0.0000 Cl  0  0  0  0  0  0  0  0  0  0  0  0
   -4.1794   -2.7990    0.0000 Cl  0  0  0  0  0  0  0  0  0  0  0  0
   -2.3313   -1.5000    0.0000 C   0  0  0  0  0  0  0  0  0  0  0  0
   -2.3313   -3.0000    0.0000 Cl  0  0  0  0  0  0  0  0  0  0  0  0
   -1.0323   -0.7500    0.0000 C   0  0  0  0  0  0  0  0  0  0  0  0
    0.3943   -1.2135    0.0000 S   0  0  0  0  0  0  0  0  0  0  0  0
  1  2  2  0
  2  3  1  0
  3  4  1  0
  4  5  2  0
  5  6  1  0
  5  7  1  0
  7  8  2  0
  8  9  1  0
  9 10  1  0
  9 11  1  0
  9 12  1  0
  8 13  1  0
 13 14  1  0
 13 15  2  0
 15 16  1  0
 16  2  1  0
 15  4  1  0
M  END
>  <Compound_ID>  (23) 
C01444421

>  <Active>  (23) 
0

>  <Smiles>  (23) 
O=c1sc2c(Cl)nc(C(Cl)(Cl)Cl)c(Cl)c2s1

>  <canonical_smi>  (23) 
O=c1sc2c(Cl)nc(C(Cl)(Cl)Cl)c(Cl)c2s1

>  <Set>  (23) 
G2 inactive

>  <Set_type>  (23) 
Train

>  <MW>  (23) 
355.48

>  <HBD>  (23) 
0

>  <HBA>  (23) 
2

>  <NRB>  (23) 
0

>  <NR>  (23) 
2

>  <NAR>  (23) 
2

>  <PSA>  (23) 
29.96

>  <Standard Type>  (23) 
nan

>  <Standard Relation>  (23) 
nan

>  <Standard Units>  (23) 
nan

>  <Standard Value>  (23) 
nan

>  <Assay ChEMBL ID>  (23) 
nan

>  <Assay Description>  (23) 
nan

>  <BAO Label>  (23) 
nan

$$$$

     RDKit          2D

 18 19  0  0  0  0  0  0  0  0999 V2000
   -0.0000   -5.1073    0.0000 C   0  0  0  0  0  0  0  0  0  0  0  0
   -0.0000   -3.6073    0.0000 C   0  0  0  0  0  0  0  0  0  0  0  0
    1.2135   -2.7256    0.0000 S   0  0  0  0  0  0  0  0  0  0  0  0
    0.7500   -1.2990    0.0000 C   0  0  0  0  0  0  0  0  0  0  0  0
    1.5000    0.0000    0.0000 N   0  0  0  0  0  0  0  0  0  0  0  0
    0.7500    1.2990    0.0000 C   0  0  0  0  0  0  0  0  0  0  0  0
   -0.7500    1.2990    0.0000 N   0  0  0  0  0  0  0  0  0  0  0  0
   -1.5000    0.0000    0.0000 C   0  0  0  0  0  0  0  0  0  0  0  0
   -3.0000    0.0000    0.0000 C   0  0  0  0  0  0  0  0  0  0  0  0
   -3.7500    1.2990    0.0000 C   0  0  0  0  0  0  0  0  0  0  0  0
   -3.0000    2.5981    0.0000 Br  0  0  0  0  0  0  0  0  0  0  0  0
   -5.2500    1.2990    0.0000 C   0  0  0  0  0  0  0  0  0  0  0  0
   -5.2500    2.7990    0.0000 C   0  0  0  0  0  0  0  0  0  0  0  0
   -5.2500   -0.2010    0.0000 C   0  0  0  0  0  0  0  0  0  0  0  0
   -6.7500    1.2990    0.0000 C   0  0  0  0  0  0  0  0  0  0  0  0
   -0.7500   -1.2990    0.0000 C   0  0  0  0  0  0  0  0  0  0  0  0
   -1.2135   -2.7256    0.0000 C   0  0  0  0  0  0  0  0  0  0  0  0
   -2.6401   -3.1891    0.0000 C   0  0  0  0  0  0  0  0  0  0  0  0
  1  2  1  0
  2  3  1  0
  3  4  1  0
  4  5  2  0
  5  6  1  0
  6  7  2  0
  7  8  1  0
  8  9  1  0
  9 10  1  0
 10 11  1  1
 10 12  1  0
 12 13  1  0
 12 14  1  0
 12 15  1  0
  8 16  2  0
 16 17  1  0
 17 18  1  0
 17  2  2  0
 16  4  1  0
M  END
>  <Compound_ID>  (24) 
C63045348

>  <Active>  (24) 
0

>  <Smiles>  (24) 
Cc1sc2ncnc(C[C@H](Br)C(C)(C)C)c2c1C

>  <canonical_smi>  (24) 
Cc1sc2ncnc(C[C@H](Br)C(C)(C)C)c2c1C

>  <Set>  (24) 
G2 inactive

>  <Set_type>  (24) 
Train

>  <MW>  (24) 
327.29

>  <HBD>  (24) 
0

>  <HBA>  (24) 
2

>  <NRB>  (24) 
2

>  <NR>  (24) 
2

>  <NAR>  (24) 
2

>  <PSA>  (24) 
25.78

>  <Standard Type>  (24) 
nan

>  <Standard Relation>  (24) 
nan

>  <Standard Units>  (24) 
nan

>  <Standard Value>  (24) 
nan

>  <Assay ChEMBL ID>  (24) 
nan

>  <Assay Description>  (24) 
nan

>  <BAO Label>  (24) 
nan

$$$$

     RDKit          2D

 21 23  0  0  0  0  0  0  0  0999 V2000
   -1.4958    4.6036    0.0000 C   0  0  0  0  0  0  0  0  0  0  0  0
   -1.0323    3.1771    0.0000 C   0  0  0  0  0  0  0  0  0  0  0  0
    0.3943    2.7135    0.0000 N   0  0  0  0  0  0  0  0  0  0  0  0
    0.3943    1.2135    0.0000 C   0  0  0  0  0  0  0  0  0  0  0  0
    1.2760    0.0000    0.0000 S   0  0  0  0  0  0  0  0  0  0  0  0
    0.3943   -1.2135    0.0000 C   0  0  0  0  0  0  0  0  0  0  0  0
   -1.0323   -0.7500    0.0000 C   0  0  0  0  0  0  0  0  0  0  0  0
   -2.2458   -1.6317    0.0000 C   0  0  0  0  0  0  0  0  0  0  0  0
   -1.0323    0.7500    0.0000 N   0  0  0  0  0  0  0  0  0  0  0  0
   -1.9140    1.9635    0.0000 C   0  0  0  0  0  0  0  0  0  0  0  0
   -3.4140    1.9635    0.0000 C   0  0  0  0  0  0  0  0  0  0  0  0
   -4.1640    0.6645    0.0000 N   0  0  0  0  0  0  0  0  0  0  0  0
   -5.6640    0.6645    0.0000 C   0  0  0  0  0  0  0  0  0  0  0  0
   -6.4140    1.9635    0.0000 C   0  0  0  0  0  0  0  0  0  0  0  0
   -7.9140    1.9635    0.0000 C   0  0  0  0  0  0  0  0  0  0  0  0
   -8.6640    0.6645    0.0000 C   0  0  0  0  0  0  0  0  0  0  0  0
  -10.1640    0.6645    0.0000 C   0  0  0  0  0  0  0  0  0  0  0  0
  -11.6640    0.6645    0.0000 N   0  0  0  0  0  0  0  0  0  0  0  0
   -7.9140   -0.6346    0.0000 C   0  0  0  0  0  0  0  0  0  0  0  0
   -6.4140   -0.6346    0.0000 C   0  0  0  0  0  0  0  0  0  0  0  0
   -5.6640   -1.9336    0.0000 Br  0  0  0  0  0  0  0  0  0  0  0  0
  1  2  1  0
  2  3  1  0
  3  4  2  0
  4  5  1  0
  5  6  1  0
  6  7  2  0
  7  8  1  0
  7  9  1  0
  9 10  1  0
 10 11  1  0
 11 12  1  0
 12 13  1  0
 13 14  2  0
 14 15  1  0
 15 16  2  0
 16 17  1  0
 17 18  3  0
 16 19  1  0
 19 20  2  0
 20 21  1  0
 10  2  2  0
 20 13  1  0
  9  4  1  0
M  END
>  <Compound_ID>  (25) 
C37302201

>  <Active>  (25) 
0

>  <Smiles>  (25) 
Cc1nc2scc(C)n2c1CNc1ccc(C#N)cc1Br

>  <canonical_smi>  (25) 
Cc1nc2scc(C)n2c1CNc1ccc(C#N)cc1Br

>  <Set>  (25) 
G2 inactive

>  <Set_type>  (25) 
Train

>  <MW>  (25) 
361.27

>  <HBD>  (25) 
1

>  <HBA>  (25) 
3

>  <NRB>  (25) 
3

>  <NR>  (25) 
3

>  <NAR>  (25) 
3

>  <PSA>  (25) 
53.12

>  <Standard Type>  (25) 
nan

>  <Standard Relation>  (25) 
nan

>  <Standard Units>  (25) 
nan

>  <Standard Value>  (25) 
nan

>  <Assay ChEMBL ID>  (25) 
nan

>  <Assay Description>  (25) 
nan

>  <BAO Label>  (25) 
nan

$$$$

     RDKit          2D

 19 20  0  0  0  0  0  0  0  0999 V2000
   -2.3971   -6.3481    0.0000 C   0  0  0  0  0  0  0  0  0  0  0  0
   -2.3971   -4.8481    0.0000 C   0  0  0  0  0  0  0  0  0  0  0  0
   -3.6962   -4.0981    0.0000 O   0  0  0  0  0  0  0  0  0  0  0  0
   -1.0981   -4.0981    0.0000 C   0  0  0  0  0  0  0  0  0  0  0  0
    0.2010   -3.3481    0.0000 C   0  0  0  0  0  0  0  0  0  0  0  0
    1.5000   -2.5981    0.0000 C   0  0  0  0  0  0  0  0  0  0  0  0
    2.7990   -1.8481    0.0000 O   0  0  0  0  0  0  0  0  0  0  0  0
    0.7500   -1.2990    0.0000 C   0  0  0  0  0  0  0  0  0  0  0  0
    1.5000    0.0000    0.0000 C   0  0  0  0  0  0  0  0  0  0  0  0
    0.7500    1.2990    0.0000 C   0  0  0  0  0  0  0  0  0  0  0  0
   -0.7500    1.2990    0.0000 C   0  0  0  0  0  0  0  0  0  0  0  0
   -1.5000    0.0000    0.0000 C   0  0  0  0  0  0  0  0  0  0  0  0
   -0.7500   -1.2990    0.0000 C   0  0  0  0  0  0  0  0  0  0  0  0
    2.2500   -3.8971    0.0000 C   0  0  0  0  0  0  0  0  0  0  0  0
    1.5000   -5.1962    0.0000 C   0  0  0  0  0  0  0  0  0  0  0  0
    2.2500   -6.4952    0.0000 C   0  0  0  0  0  0  0  0  0  0  0  0
    3.7500   -6.4952    0.0000 C   0  0  0  0  0  0  0  0  0  0  0  0
    4.5000   -5.1962    0.0000 C   0  0  0  0  0  0  0  0  0  0  0  0
    3.7500   -3.8971    0.0000 C   0  0  0  0  0  0  0  0  0  0  0  0
  2  1  1  1
  2  3  1  0
  2  4  1  0
  4  5  3  0
  5  6  1  0
  6  7  1  0
  6  8  1  0
  8  9  2  0
  9 10  1  0
 10 11  2  0
 11 12  1  0
 12 13  2  0
  6 14  1  0
 14 15  2  0
 15 16  1  0
 16 17  2  0
 17 18  1  0
 18 19  2  0
 13  8  1  0
 19 14  1  0
M  END
>  <Compound_ID>  (26) 
C12364789

>  <Active>  (26) 
0

>  <Smiles>  (26) 
C[C@@H](O)C#CC(O)(c1ccccc1)c1ccccc1

>  <canonical_smi>  (26) 
C[C@@H](O)C#CC(O)(c1ccccc1)c1ccccc1

>  <Set>  (26) 
G2 inactive

>  <Set_type>  (26) 
Train

>  <MW>  (26) 
252.31

>  <HBD>  (26) 
2

>  <HBA>  (26) 
2

>  <NRB>  (26) 
2

>  <NR>  (26) 
2

>  <NAR>  (26) 
2

>  <PSA>  (26) 
40.46

>  <Standard Type>  (26) 
nan

>  <Standard Relation>  (26) 
nan

>  <Standard Units>  (26) 
nan

>  <Standard Value>  (26) 
nan

>  <Assay ChEMBL ID>  (26) 
nan

>  <Assay Description>  (26) 
nan

>  <BAO Label>  (26) 
nan

$$$$

     RDKit          2D

 16 17  0  0  0  0  0  0  0  0999 V2000
    2.7307   -6.4049    0.0000 C   0  0  0  0  0  0  0  0  0  0  0  0
    3.1189   -4.9560    0.0000 C   0  0  0  0  0  0  0  0  0  0  0  0
    2.0583   -3.8954    0.0000 C   0  0  0  0  0  0  0  0  0  0  0  0
    2.4465   -2.4465    0.0000 N   0  0  0  0  0  0  0  0  0  0  0  0
    1.3858   -1.3858    0.0000 C   0  0  0  0  0  0  0  0  0  0  0  0
    1.9598    0.0000    0.0000 C   0  0  0  0  0  0  0  0  0  0  0  0
    1.3858    1.3858    0.0000 C   0  0  0  0  0  0  0  0  0  0  0  0
    0.0000    1.9598    0.0000 C   0  0  0  0  0  0  0  0  0  0  0  0
   -1.3858    1.3858    0.0000 C   0  0  0  0  0  0  0  0  0  0  0  0
   -1.9598    0.0000    0.0000 C   0  0  0  0  0  0  0  0  0  0  0  0
   -1.3858   -1.3858    0.0000 C   0  0  0  0  0  0  0  0  0  0  0  0
   -0.0000   -1.9598    0.0000 C   0  0  0  0  0  0  0  0  0  0  0  0
   -0.0000   -3.4598    0.0000 N   0  0  0  0  0  0  0  0  0  0  0  0
    3.8954   -2.0583    0.0000 C   0  0  0  0  0  0  0  0  0  0  0  0
    4.9560   -3.1189    0.0000 C   0  0  0  0  0  0  0  0  0  0  0  0
    4.5678   -4.5678    0.0000 O   0  0  0  0  0  0  0  0  0  0  0  0
  2  1  1  6
  2  3  1  0
  3  4  1  0
  5  4  1  1
  5  6  1  0
  6  7  1  0
  7  8  1  0
  8  9  1  0
  9 10  1  0
 10 11  1  0
 11 12  1  0
 12 13  1  1
  4 14  1  0
 14 15  1  0
 15 16  1  0
 16  2  1  0
 12  5  1  0
M  END
>  <Compound_ID>  (27) 
C19258684

>  <Active>  (27) 
0

>  <Smiles>  (27) 
C[C@@H]1CN([C@@H]2CCCCCC[C@@H]2N)CCO1

>  <canonical_smi>  (27) 
C[C@@H]1CN([C@@H]2CCCCCC[C@@H]2N)CCO1

>  <Set>  (27) 
G2 inactive

>  <Set_type>  (27) 
Train

>  <MW>  (27) 
226.36

>  <HBD>  (27) 
1

>  <HBA>  (27) 
3

>  <NRB>  (27) 
1

>  <NR>  (27) 
2

>  <NAR>  (27) 
0

>  <PSA>  (27) 
38.49

>  <Standard Type>  (27) 
nan

>  <Standard Relation>  (27) 
nan

>  <Standard Units>  (27) 
nan

>  <Standard Value>  (27) 
nan

>  <Assay ChEMBL ID>  (27) 
nan

>  <Assay Description>  (27) 
nan

>  <BAO Label>  (27) 
nan

$$$$

     RDKit          2D

 10 10  0  0  0  0  0  0  0  0999 V2000
    3.7500    1.2990    0.0000 H   0  0  0  0  0  0  0  0  0  0  0  0
    3.0000    0.0000    0.0000 N   0  0  0  0  0  0  0  0  0  0  0  0
    1.5000    0.0000    0.0000 C   0  0  0  0  0  0  0  0  0  0  0  0
    0.7500   -1.2990    0.0000 N   0  0  0  0  0  0  0  0  0  0  0  0
   -0.7500   -1.2990    0.0000 C   0  0  0  0  0  0  0  0  0  0  0  0
   -1.5000   -2.5981    0.0000 Br  0  0  0  0  0  0  0  0  0  0  0  0
   -1.5000    0.0000    0.0000 S   0  0  0  0  0  0  0  0  0  0  0  0
   -0.7500    1.2990    0.0000 C   0  0  0  0  0  0  0  0  0  0  0  0
   -1.5000    2.5981    0.0000 C   0  0  0  0  0  0  0  0  0  0  0  0
    0.7500    1.2990    0.0000 S   0  0  0  0  0  0  0  0  0  0  0  0
  1  2  1  0
  2  3  2  0
  3  4  1  0
  4  5  2  0
  5  6  1  0
  5  7  1  0
  7  8  1  0
  8  9  1  6
  8 10  1  0
 10  3  1  0
M  END
>  <Compound_ID>  (28) 
C39110813

>  <Active>  (28) 
0

>  <Smiles>  (28) 
[H]/N=C1/N=C(Br)S[C@H](C)S1

>  <canonical_smi>  (28) 
[H]/N=C1/N=C(Br)S[C@H](C)S1

>  <Set>  (28) 
G2 inactive

>  <Set_type>  (28) 
Train

>  <MW>  (28) 
225.14

>  <HBD>  (28) 
1

>  <HBA>  (28) 
2

>  <NRB>  (28) 
0

>  <NR>  (28) 
1

>  <NAR>  (28) 
0

>  <PSA>  (28) 
36.21

>  <Standard Type>  (28) 
nan

>  <Standard Relation>  (28) 
nan

>  <Standard Units>  (28) 
nan

>  <Standard Value>  (28) 
nan

>  <Assay ChEMBL ID>  (28) 
nan

>  <Assay Description>  (28) 
nan

>  <BAO Label>  (28) 
nan

$$$$

     RDKit          2D

 13 14  0  0  0  0  0  0  0  0999 V2000
    4.4047    3.4486    0.0000 C   0  0  0  0  0  0  0  0  0  0  0  0
    3.0344    4.0587    0.0000 S   0  0  0  0  0  0  0  0  0  0  0  0
    1.8209    3.1771    0.0000 C   0  0  0  0  0  0  0  0  0  0  0  0
    0.3943    3.6406    0.0000 C   0  0  0  0  0  0  0  0  0  0  0  0
   -0.4874    2.4271    0.0000 N   0  0  0  0  0  0  0  0  0  0  0  0
   -1.9874    2.4271    0.0000 O   0  0  0  0  0  0  0  0  0  0  0  0
    0.3943    1.2135    0.0000 C   0  0  0  0  0  0  0  0  0  0  0  0
    1.2760    0.0000    0.0000 C   0  0  0  0  0  0  0  0  0  0  0  0
    0.3943   -1.2135    0.0000 C   0  0  0  0  0  0  0  0  0  0  0  0
   -1.0323   -0.7500    0.0000 C   0  0  0  0  0  0  0  0  0  0  0  0
   -2.2458   -1.6317    0.0000 Cl  0  0  0  0  0  0  0  0  0  0  0  0
   -1.0323    0.7500    0.0000 C   0  0  0  0  0  0  0  0  0  0  0  0
    1.8209    1.6771    0.0000 C   0  0  0  0  0  0  0  0  0  0  0  0
  1  2  1  0
  3  2  1  1
  3  4  1  0
  4  5  1  0
  5  6  1  0
  5  7  1  0
  7  8  1  1
  8  9  1  0
  9 10  1  0
 10 11  1  6
 10 12  1  0
  7 13  1  0
 13  3  1  0
 12  7  1  0
M  END
>  <Compound_ID>  (29) 
C39504907

>  <Active>  (29) 
0

>  <Smiles>  (29) 
CS[C@@H]1CN(O)[C@]2(CC[C@H](Cl)C2)C1

>  <canonical_smi>  (29) 
CS[C@@H]1CN(O)[C@]2(CC[C@H](Cl)C2)C1

>  <Set>  (29) 
G2 inactive

>  <Set_type>  (29) 
Train

>  <MW>  (29) 
221.75

>  <HBD>  (29) 
1

>  <HBA>  (29) 
3

>  <NRB>  (29) 
1

>  <NR>  (29) 
2

>  <NAR>  (29) 
0

>  <PSA>  (29) 
23.47

>  <Standard Type>  (29) 
nan

>  <Standard Relation>  (29) 
nan

>  <Standard Units>  (29) 
nan

>  <Standard Value>  (29) 
nan

>  <Assay ChEMBL ID>  (29) 
nan

>  <Assay Description>  (29) 
nan

>  <BAO Label>  (29) 
nan

$$$$

     RDKit          2D

  8  8  0  0  0  0  0  0  0  0999 V2000
    2.7760    0.0000    0.0000 C   0  0  0  0  0  0  0  0  0  0  0  0
    1.2760    0.0000    0.0000 N   0  0  0  0  0  0  0  0  0  0  0  0
    0.3943    1.2135    0.0000 C   0  0  0  0  0  0  0  0  0  0  0  0
   -1.0323    0.7500    0.0000 C   0  0  0  0  0  0  0  0  0  0  0  0
   -2.2458    1.6317    0.0000 O   0  0  0  0  0  0  0  0  0  0  0  0
   -1.0323   -0.7500    0.0000 C   0  0  0  0  0  0  0  0  0  0  0  0
   -2.2458   -1.6317    0.0000 I   0  0  0  0  0  0  0  0  0  0  0  0
    0.3943   -1.2135    0.0000 C   0  0  0  0  0  0  0  0  0  0  0  0
  1  2  1  0
  2  3  1  0
  3  4  2  0
  4  5  1  0
  4  6  1  0
  6  7  1  0
  6  8  2  0
  8  2  1  0
M  END
>  <Compound_ID>  (30) 
C39540402

>  <Active>  (30) 
0

>  <Smiles>  (30) 
Cn1cc(O)c(I)c1

>  <canonical_smi>  (30) 
Cn1cc(O)c(I)c1

>  <Set>  (30) 
G2 inactive

>  <Set_type>  (30) 
Train

>  <MW>  (30) 
223.01

>  <HBD>  (30) 
1

>  <HBA>  (30) 
1

>  <NRB>  (30) 
0

>  <NR>  (30) 
1

>  <NAR>  (30) 
1

>  <PSA>  (30) 
25.16

>  <Standard Type>  (30) 
nan

>  <Standard Relation>  (30) 
nan

>  <Standard Units>  (30) 
nan

>  <Standard Value>  (30) 
nan

>  <Assay ChEMBL ID>  (30) 
nan

>  <Assay Description>  (30) 
nan

>  <BAO Label>  (30) 
nan

$$$$

     RDKit          2D

 16 18  0  0  0  0  0  0  0  0999 V2000
    3.0000    0.0000    0.0000 F   0  0  0  0  0  0  0  0  0  0  0  0
    1.5000    0.0000    0.0000 C   0  0  0  0  0  0  0  0  0  0  0  0
    0.7500   -1.2990    0.0000 C   0  0  0  0  0  0  0  0  0  0  0  0
   -0.7500   -1.2990    0.0000 C   0  0  0  0  0  0  0  0  0  0  0  0
   -1.5000    0.0000    0.0000 C   0  0  0  0  0  0  0  0  0  0  0  0
   -2.9672    0.3119    0.0000 N   0  0  0  0  0  0  0  0  0  0  0  0
   -3.1240    1.8037    0.0000 C   0  0  0  0  0  0  0  0  0  0  0  0
   -4.4231    2.5537    0.0000 S   0  0  0  0  0  0  0  0  0  0  0  0
   -1.7537    2.4138    0.0000 N   0  0  0  0  0  0  0  0  0  0  0  0
   -1.4418    3.8810    0.0000 C   0  0  0  0  0  0  0  0  0  0  0  0
   -0.1838    4.6979    0.0000 C   0  0  0  0  0  0  0  0  0  0  0  0
   -1.0008    5.9559    0.0000 C   0  0  0  0  0  0  0  0  0  0  0  0
   -2.2588    5.1390    0.0000 C   0  0  0  0  0  0  0  0  0  0  0  0
   -0.7500    1.2990    0.0000 C   0  0  0  0  0  0  0  0  0  0  0  0
    0.7500    1.2990    0.0000 C   0  0  0  0  0  0  0  0  0  0  0  0
    1.5000    2.5981    0.0000 F   0  0  0  0  0  0  0  0  0  0  0  0
  1  2  1  0
  2  3  2  0
  3  4  1  0
  4  5  2  0
  5  6  1  0
  6  7  1  0
  7  8  2  0
  7  9  1  0
  9 10  1  0
 10 11  1  0
 11 12  1  0
 12 13  1  0
  9 14  1  0
 14 15  2  0
 15 16  1  0
 15  2  1  0
 14  5  1  0
 13 10  1  0
M  END
>  <Compound_ID>  (31) 
C53169395

>  <Active>  (31) 
0

>  <Smiles>  (31) 
Fc1ccc2[nH]c(=S)n(C3CCC3)c2c1F

>  <canonical_smi>  (31) 
Fc1ccc2[nH]c(=S)n(C3CCC3)c2c1F

>  <Set>  (31) 
G2 inactive

>  <Set_type>  (31) 
Train

>  <MW>  (31) 
240.28

>  <HBD>  (31) 
1

>  <HBA>  (31) 
1

>  <NRB>  (31) 
1

>  <NR>  (31) 
3

>  <NAR>  (31) 
2

>  <PSA>  (31) 
20.72

>  <Standard Type>  (31) 
nan

>  <Standard Relation>  (31) 
nan

>  <Standard Units>  (31) 
nan

>  <Standard Value>  (31) 
nan

>  <Assay ChEMBL ID>  (31) 
nan

>  <Assay Description>  (31) 
nan

>  <BAO Label>  (31) 
nan

$$$$

     RDKit          2D

 16 17  0  0  0  0  0  0  0  0999 V2000
    3.0000    0.0000    0.0000 C   0  0  0  0  0  0  0  0  0  0  0  0
    1.5000    0.0000    0.0000 C   0  0  0  0  0  0  0  0  0  0  0  0
    0.7500   -1.2990    0.0000 C   0  0  0  0  0  0  0  0  0  0  0  0
   -0.7500   -1.2990    0.0000 C   0  0  0  0  0  0  0  0  0  0  0  0
   -1.5000    0.0000    0.0000 C   0  0  0  0  0  0  0  0  0  0  0  0
   -3.0000    0.0000    0.0000 C   0  0  0  0  0  0  0  0  0  0  0  0
   -3.7500   -1.2990    0.0000 O   0  0  0  0  0  0  0  0  0  0  0  0
   -3.7500    1.2990    0.0000 C   0  0  0  0  0  0  0  0  0  0  0  0
   -3.0000    2.5981    0.0000 C   0  0  0  0  0  0  0  0  0  0  0  0
   -3.7500    3.8971    0.0000 C   0  0  0  0  0  0  0  0  0  0  0  0
   -5.2500    3.8971    0.0000 C   0  0  0  0  0  0  0  0  0  0  0  0
   -6.0000    2.5981    0.0000 C   0  0  0  0  0  0  0  0  0  0  0  0
   -5.2500    1.2990    0.0000 C   0  0  0  0  0  0  0  0  0  0  0  0
   -0.7500    1.2990    0.0000 C   0  0  0  0  0  0  0  0  0  0  0  0
   -1.5000    2.5981    0.0000 C   0  0  0  0  0  0  0  0  0  0  0  0
    0.7500    1.2990    0.0000 N   0  0  0  0  0  0  0  0  0  0  0  0
  1  2  1  0
  2  3  2  0
  3  4  1  0
  4  5  2  0
  5  6  1  0
  6  7  1  6
  6  8  1  0
  8  9  2  0
  9 10  1  0
 10 11  1  0
 11 12  1  0
 12 13  1  0
  5 14  1  0
 14 15  1  0
 14 16  2  0
 16  2  1  0
 13  8  1  0
M  END
>  <Compound_ID>  (32) 
C55331348

>  <Active>  (32) 
0

>  <Smiles>  (32) 
Cc1ccc([C@H](O)C2=CCCCC2)c(C)n1

>  <canonical_smi>  (32) 
Cc1ccc([C@H](O)C2=CCCCC2)c(C)n1

>  <Set>  (32) 
G2 inactive

>  <Set_type>  (32) 
Train

>  <MW>  (32) 
217.31

>  <HBD>  (32) 
1

>  <HBA>  (32) 
2

>  <NRB>  (32) 
2

>  <NR>  (32) 
2

>  <NAR>  (32) 
1

>  <PSA>  (32) 
33.12

>  <Standard Type>  (32) 
nan

>  <Standard Relation>  (32) 
nan

>  <Standard Units>  (32) 
nan

>  <Standard Value>  (32) 
nan

>  <Assay ChEMBL ID>  (32) 
nan

>  <Assay Description>  (32) 
nan

>  <BAO Label>  (32) 
nan

$$$$

     RDKit          2D

 22 25  0  0  0  0  0  0  0  0999 V2000
    3.5260   -1.2990    0.0000 C   0  0  0  0  0  0  0  0  0  0  0  0
    2.7760    0.0000    0.0000 C   0  0  0  0  0  0  0  0  0  0  0  0
    1.2760    0.0000    0.0000 N   0  0  0  0  0  0  0  0  0  0  0  0
    0.3943    1.2135    0.0000 N   0  0  0  0  0  0  0  0  0  0  0  0
   -1.0323    0.7500    0.0000 C   0  0  0  0  0  0  0  0  0  0  0  0
   -1.0323   -0.7500    0.0000 C   0  0  0  0  0  0  0  0  0  0  0  0
   -1.9140   -1.9635    0.0000 N   0  0  0  0  0  0  0  0  0  0  0  0
   -1.0323   -3.1771    0.0000 C   0  0  0  0  0  0  0  0  0  0  0  0
   -1.4958   -4.6036    0.0000 C   0  0  0  0  0  0  0  0  0  0  0  0
   -0.6141   -5.8172    0.0000 C   0  0  0  0  0  0  0  0  0  0  0  0
   -1.4958   -7.0307    0.0000 C   0  0  0  0  0  0  0  0  0  0  0  0
   -2.9224   -6.5672    0.0000 C   0  0  0  0  0  0  0  0  0  0  0  0
   -2.9224   -5.0672    0.0000 N   0  0  0  0  0  0  0  0  0  0  0  0
   -4.1359   -4.1855    0.0000 C   0  0  0  0  0  0  0  0  0  0  0  0
   -3.9791   -2.6937    0.0000 C   0  0  0  0  0  0  0  0  0  0  0  0
   -5.1927   -1.8120    0.0000 C   0  0  0  0  0  0  0  0  0  0  0  0
   -6.5630   -2.4221    0.0000 C   0  0  0  0  0  0  0  0  0  0  0  0
   -7.7765   -1.5404    0.0000 Cl  0  0  0  0  0  0  0  0  0  0  0  0
   -6.7198   -3.9139    0.0000 C   0  0  0  0  0  0  0  0  0  0  0  0
   -5.5062   -4.7956    0.0000 N   0  0  0  0  0  0  0  0  0  0  0  0
    0.3943   -2.7135    0.0000 N   0  0  0  0  0  0  0  0  0  0  0  0
    0.3943   -1.2135    0.0000 C   0  0  0  0  0  0  0  0  0  0  0  0
  1  2  1  0
  2  3  1  0
  3  4  1  0
  4  5  2  0
  5  6  1  0
  6  7  2  0
  7  8  1  0
  8  9  1  1
  9 10  2  0
 10 11  1  0
 11 12  2  0
 12 13  1  0
 13 14  1  0
 14 15  2  0
 15 16  1  0
 16 17  2  0
 17 18  1  0
 17 19  1  0
 19 20  2  0
  8 21  1  0
 22 21  1  6
 22  3  1  0
 22  6  1  0
 13  9  1  0
 20 14  1  0
M  END
>  <Compound_ID>  (33) 
C63833986

>  <Active>  (33) 
0

>  <Smiles>  (33) 
CCN1N=CC2=N[C@H](c3cccn3-c3ccc(Cl)cn3)N[C@H]21

>  <canonical_smi>  (33) 
CCN1N=CC2=N[C@H](c3cccn3-c3ccc(Cl)cn3)N[C@H]21

>  <Set>  (33) 
G2 inactive

>  <Set_type>  (33) 
Train

>  <MW>  (33) 
314.78

>  <HBD>  (33) 
1

>  <HBA>  (33) 
3

>  <NRB>  (33) 
3

>  <NR>  (33) 
4

>  <NAR>  (33) 
2

>  <PSA>  (33) 
57.81

>  <Standard Type>  (33) 
nan

>  <Standard Relation>  (33) 
nan

>  <Standard Units>  (33) 
nan

>  <Standard Value>  (33) 
nan

>  <Assay ChEMBL ID>  (33) 
nan

>  <Assay Description>  (33) 
nan

>  <BAO Label>  (33) 
nan

$$$$

     RDKit          2D

 28 30  0  0  0  0  0  0  0  0999 V2000
    1.5000   -5.1962    0.0000 C   0  0  0  0  0  0  0  0  0  0  0  0
    0.7500   -3.8971    0.0000 N   0  0  0  0  0  0  0  0  0  0  0  0
    1.5000   -2.5981    0.0000 C   0  0  0  0  0  0  0  0  0  0  0  0
    0.7500   -1.2990    0.0000 C   0  0  0  0  0  0  0  0  0  0  0  0
    1.5000    0.0000    0.0000 C   0  0  0  0  0  0  0  0  0  0  0  0
    0.7500    1.2990    0.0000 C   0  0  0  0  0  0  0  0  0  0  0  0
   -0.7500    1.2990    0.0000 C   0  0  0  0  0  0  0  0  0  0  0  0
   -1.5000    2.5981    0.0000 C   0  0  0  0  0  0  0  0  0  0  0  0
   -2.2500    3.8971    0.0000 F   0  0  0  0  0  0  0  0  0  0  0  0
   -0.2010    3.3481    0.0000 F   0  0  0  0  0  0  0  0  0  0  0  0
   -2.7990    1.8481    0.0000 F   0  0  0  0  0  0  0  0  0  0  0  0
   -1.5000    0.0000    0.0000 C   0  0  0  0  0  0  0  0  0  0  0  0
   -0.7500   -1.2990    0.0000 C   0  0  0  0  0  0  0  0  0  0  0  0
   -0.7500   -3.8971    0.0000 C   0  0  0  0  0  0  0  0  0  0  0  0
   -1.5000   -2.5981    0.0000 O   0  0  0  0  0  0  0  0  0  0  0  0
   -1.5000   -5.1962    0.0000 N   0  0  0  0  0  0  0  0  0  0  0  0
   -3.0000   -5.1962    0.0000 C   0  0  0  0  0  0  0  0  0  0  0  0
   -3.7500   -6.4952    0.0000 C   0  0  0  0  0  0  0  0  0  0  0  0
   -5.2500   -6.4952    0.0000 C   0  0  0  0  0  0  0  0  0  0  0  0
   -6.0000   -7.7942    0.0000 C   0  0  0  0  0  0  0  0  0  0  0  0
   -5.2500   -9.0933    0.0000 C   0  0  0  0  0  0  0  0  0  0  0  0
   -6.0000  -10.3923    0.0000 N   0  0  0  0  0  0  0  0  0  0  0  0
   -5.3899  -11.7626    0.0000 C   0  0  0  0  0  0  0  0  0  0  0  0
   -6.5046  -12.7663    0.0000 C   0  0  0  0  0  0  0  0  0  0  0  0
   -7.8037  -12.0163    0.0000 N   0  0  0  0  0  0  0  0  0  0  0  0
   -7.4918  -10.5491    0.0000 C   0  0  0  0  0  0  0  0  0  0  0  0
   -3.7500   -9.0933    0.0000 C   0  0  0  0  0  0  0  0  0  0  0  0
   -3.0000   -7.7942    0.0000 C   0  0  0  0  0  0  0  0  0  0  0  0
  1  2  1  0
  2  3  1  0
  3  4  1  0
  4  5  2  0
  5  6  1  0
  6  7  2  0
  7  8  1  0
  8  9  1  0
  8 10  1  0
  8 11  1  0
  7 12  1  0
 12 13  2  0
  2 14  1  0
 14 15  2  0
 14 16  1  0
 16 17  1  0
 17 18  1  0
 18 19  2  0
 19 20  1  0
 20 21  2  0
 21 22  1  0
 22 23  1  0
 23 24  2  0
 24 25  1  0
 25 26  2  0
 21 27  1  0
 27 28  2  0
 13  4  1  0
 28 18  1  0
 26 22  1  0
M  END
>  <Compound_ID>  (34) 
C66890981

>  <Active>  (34) 
0

>  <Smiles>  (34) 
CN(Cc1ccc(C(F)(F)F)cc1)C(=O)NCc1ccc(-n2ccnc2)cc1

>  <canonical_smi>  (34) 
CN(Cc1ccc(C(F)(F)F)cc1)C(=O)NCc1ccc(-n2ccnc2)cc1

>  <Set>  (34) 
G2 inactive

>  <Set_type>  (34) 
Train

>  <MW>  (34) 
388.39

>  <HBD>  (34) 
1

>  <HBA>  (34) 
2

>  <NRB>  (34) 
5

>  <NR>  (34) 
3

>  <NAR>  (34) 
3

>  <PSA>  (34) 
50.16

>  <Standard Type>  (34) 
nan

>  <Standard Relation>  (34) 
nan

>  <Standard Units>  (34) 
nan

>  <Standard Value>  (34) 
nan

>  <Assay ChEMBL ID>  (34) 
nan

>  <Assay Description>  (34) 
nan

>  <BAO Label>  (34) 
nan

$$$$

     RDKit          2D

 21 23  0  0  0  0  0  0  0  0999 V2000
    3.0000    0.0000    0.0000 N   0  0  0  0  0  0  0  0  0  0  0  0
    1.5000    0.0000    0.0000 C   0  0  0  0  0  0  0  0  0  0  0  0
    0.7500   -1.2990    0.0000 C   0  0  0  0  0  0  0  0  0  0  0  0
   -0.7500   -1.2990    0.0000 C   0  0  0  0  0  0  0  0  0  0  0  0
   -1.5000   -2.5981    0.0000 N   0  0  0  0  0  0  0  0  0  0  0  0
   -1.5000    0.0000    0.0000 C   0  0  0  0  0  0  0  0  0  0  0  0
   -0.7500    1.2990    0.0000 C   0  0  0  0  0  0  0  0  0  0  0  0
   -1.5000    2.5981    0.0000 C   0  0  0  0  0  0  0  0  0  0  0  0
   -2.9918    2.7549    0.0000 N   0  0  0  0  0  0  0  0  0  0  0  0
   -3.3037    4.2221    0.0000 N   0  0  0  0  0  0  0  0  0  0  0  0
   -2.0046    4.9721    0.0000 N   0  0  0  0  0  0  0  0  0  0  0  0
   -0.8899    3.9684    0.0000 N   0  0  0  0  0  0  0  0  0  0  0  0
    0.5773    4.2803    0.0000 C   0  0  0  0  0  0  0  0  0  0  0  0
    1.5810    3.1655    0.0000 C   0  0  0  0  0  0  0  0  0  0  0  0
    3.0482    3.4774    0.0000 C   0  0  0  0  0  0  0  0  0  0  0  0
    4.0519    2.3627    0.0000 Br  0  0  0  0  0  0  0  0  0  0  0  0
    3.5118    4.9040    0.0000 C   0  0  0  0  0  0  0  0  0  0  0  0
    2.5081    6.0187    0.0000 C   0  0  0  0  0  0  0  0  0  0  0  0
    1.0409    5.7068    0.0000 C   0  0  0  0  0  0  0  0  0  0  0  0
    0.0372    6.8216    0.0000 Br  0  0  0  0  0  0  0  0  0  0  0  0
    0.7500    1.2990    0.0000 C   0  0  0  0  0  0  0  0  0  0  0  0
  1  2  1  0
  2  3  2  0
  3  4  1  0
  4  5  1  0
  4  6  2  0
  6  7  1  0
  7  8  1  0
  8  9  2  0
  9 10  1  0
 10 11  2  0
 11 12  1  0
 12 13  1  0
 13 14  2  0
 14 15  1  0
 15 16  1  0
 15 17  2  0
 17 18  1  0
 18 19  2  0
 19 20  1  0
  7 21  2  0
 21  2  1  0
 12  8  1  0
 19 13  1  0
M  END
>  <Compound_ID>  (35) 
C49121986

>  <Active>  (35) 
0

>  <Smiles>  (35) 
Nc1cc(N)cc(-c2nnnn2-c2cc(Br)ccc2Br)c1

>  <canonical_smi>  (35) 
Nc1cc(N)cc(-c2nnnn2-c2cc(Br)ccc2Br)c1

>  <Set>  (35) 
G2 inactive

>  <Set_type>  (35) 
Train

>  <MW>  (35) 
410.07

>  <HBD>  (35) 
2

>  <HBA>  (35) 
5

>  <NRB>  (35) 
2

>  <NR>  (35) 
3

>  <NAR>  (35) 
3

>  <PSA>  (35) 
95.64

>  <Standard Type>  (35) 
nan

>  <Standard Relation>  (35) 
nan

>  <Standard Units>  (35) 
nan

>  <Standard Value>  (35) 
nan

>  <Assay ChEMBL ID>  (35) 
nan

>  <Assay Description>  (35) 
nan

>  <BAO Label>  (35) 
nan

$$$$

     RDKit          2D

 26 29  0  0  0  0  0  0  0  0999 V2000
   -6.9431   -6.6502    0.0000 C   0  0  0  0  0  0  0  0  0  0  0  0
   -5.7296   -5.7685    0.0000 C   0  0  0  0  0  0  0  0  0  0  0  0
   -5.8864   -4.2767    0.0000 C   0  0  0  0  0  0  0  0  0  0  0  0
   -4.6729   -3.3950    0.0000 C   0  0  0  0  0  0  0  0  0  0  0  0
   -3.3025   -4.0051    0.0000 C   0  0  0  0  0  0  0  0  0  0  0  0
   -2.0890   -3.1235    0.0000 S   0  0  0  0  0  0  0  0  0  0  0  0
   -2.2458   -1.6317    0.0000 C   0  0  0  0  0  0  0  0  0  0  0  0
   -1.0323   -0.7500    0.0000 C   0  0  0  0  0  0  0  0  0  0  0  0
   -1.0323    0.7500    0.0000 C   0  0  0  0  0  0  0  0  0  0  0  0
   -2.1470    1.7537    0.0000 C   0  0  0  0  0  0  0  0  0  0  0  0
   -3.5736    1.2902    0.0000 C   0  0  0  0  0  0  0  0  0  0  0  0
   -4.0371   -0.1364    0.0000 C   0  0  0  0  0  0  0  0  0  0  0  0
   -5.5371   -0.1364    0.0000 C   0  0  0  0  0  0  0  0  0  0  0  0
   -6.0006    1.2902    0.0000 C   0  0  0  0  0  0  0  0  0  0  0  0
   -4.7871    2.1718    0.0000 O   0  0  0  0  0  0  0  0  0  0  0  0
   -1.8351    3.2209    0.0000 C   0  0  0  0  0  0  0  0  0  0  0  0
   -2.9499    4.2246    0.0000 C   0  0  0  0  0  0  0  0  0  0  0  0
   -4.0646    5.2283    0.0000 N   0  0  0  0  0  0  0  0  0  0  0  0
   -0.4086    3.6844    0.0000 C   0  0  0  0  0  0  0  0  0  0  0  0
   -0.0967    5.1517    0.0000 N   0  0  0  0  0  0  0  0  0  0  0  0
    0.7062    2.6807    0.0000 O   0  0  0  0  0  0  0  0  0  0  0  0
    0.3943    1.2135    0.0000 C   0  0  0  0  0  0  0  0  0  0  0  0
    1.2760    0.0000    0.0000 N   0  0  0  0  0  0  0  0  0  0  0  0
    0.3943   -1.2135    0.0000 N   0  0  0  0  0  0  0  0  0  0  0  0
   -3.1458   -5.4969    0.0000 C   0  0  0  0  0  0  0  0  0  0  0  0
   -4.3593   -6.3786    0.0000 C   0  0  0  0  0  0  0  0  0  0  0  0
  1  2  1  0
  2  3  2  0
  3  4  1  0
  4  5  2  0
  5  6  1  0
  6  7  1  0
  7  8  1  0
  8  9  2  0
  9 10  1  0
 10 11  1  1
 11 12  2  0
 12 13  1  0
 13 14  2  0
 14 15  1  0
 10 16  1  0
 16 17  1  0
 17 18  3  0
 16 19  2  0
 19 20  1  0
 19 21  1  0
 22 21  1  6
 22 23  1  0
 23 24  2  0
  5 25  1  0
 25 26  2  0
 26  2  1  0
 24  8  1  0
 22  9  1  0
 15 11  1  0
M  END
>  <Compound_ID>  (36) 
C39978989

>  <Active>  (36) 
0

>  <Smiles>  (36) 
Cc1ccc(SCC2=C3[C@@H](c4ccco4)C(C#N)=C(N)O[C@@H]3N=N2)cc1

>  <canonical_smi>  (36) 
Cc1ccc(SCC2=C3[C@@H](N=N2)OC(N)=C(C#N)[C@@H]3c2ccco2)cc1

>  <Set>  (36) 
G2 inactive

>  <Set_type>  (36) 
Train

>  <MW>  (36) 
364.43

>  <HBD>  (36) 
1

>  <HBA>  (36) 
5

>  <NRB>  (36) 
4

>  <NR>  (36) 
4

>  <NAR>  (36) 
2

>  <PSA>  (36) 
96.9

>  <Standard Type>  (36) 
nan

>  <Standard Relation>  (36) 
nan

>  <Standard Units>  (36) 
nan

>  <Standard Value>  (36) 
nan

>  <Assay ChEMBL ID>  (36) 
nan

>  <Assay Description>  (36) 
nan

>  <BAO Label>  (36) 
nan

$$$$

     RDKit          2D

 26 28  0  0  0  0  0  0  0  0999 V2000
   -5.2500   -3.8971    0.0000 C   0  0  0  0  0  0  0  0  0  0  0  0
   -3.7500   -3.8971    0.0000 C   0  0  0  0  0  0  0  0  0  0  0  0
   -3.0000   -2.5981    0.0000 N   0  0  0  0  0  0  0  0  0  0  0  0
   -1.5000   -2.5981    0.0000 C   0  0  0  0  0  0  0  0  0  0  0  0
   -0.7500   -3.8971    0.0000 C   0  0  0  0  0  0  0  0  0  0  0  0
   -1.5000   -5.1962    0.0000 N   0  0  0  0  0  0  0  0  0  0  0  0
   -0.7500   -6.4952    0.0000 S   0  0  0  0  0  0  0  0  0  0  0  0
    0.5490   -5.7452    0.0000 O   0  0  0  0  0  0  0  0  0  0  0  0
   -2.0490   -7.2452    0.0000 O   0  0  0  0  0  0  0  0  0  0  0  0
   -0.0000   -7.7942    0.0000 C   0  0  0  0  0  0  0  0  0  0  0  0
   -0.7500   -9.0933    0.0000 C   0  0  0  0  0  0  0  0  0  0  0  0
    0.0000  -10.3923    0.0000 C   0  0  0  0  0  0  0  0  0  0  0  0
    1.5000  -10.3923    0.0000 C   0  0  0  0  0  0  0  0  0  0  0  0
    2.2500  -11.6913    0.0000 C   0  0  0  0  0  0  0  0  0  0  0  0
    2.2500   -9.0933    0.0000 C   0  0  0  0  0  0  0  0  0  0  0  0
    1.5000   -7.7942    0.0000 C   0  0  0  0  0  0  0  0  0  0  0  0
    2.2500   -6.4952    0.0000 C   0  0  0  0  0  0  0  0  0  0  0  0
    0.7500   -3.8971    0.0000 C   0  0  0  0  0  0  0  0  0  0  0  0
    1.5000   -5.1962    0.0000 O   0  0  0  0  0  0  0  0  0  0  0  0
    1.5000   -2.5981    0.0000 O   0  0  0  0  0  0  0  0  0  0  0  0
    0.7500   -1.2990    0.0000 C   0  0  0  0  0  0  0  0  0  0  0  0
    1.5000    0.0000    0.0000 C   0  0  0  0  0  0  0  0  0  0  0  0
    0.7500    1.2990    0.0000 C   0  0  0  0  0  0  0  0  0  0  0  0
   -0.7500    1.2990    0.0000 C   0  0  0  0  0  0  0  0  0  0  0  0
   -1.5000    0.0000    0.0000 C   0  0  0  0  0  0  0  0  0  0  0  0
   -0.7500   -1.2990    0.0000 C   0  0  0  0  0  0  0  0  0  0  0  0
  1  2  1  0
  2  3  1  0
  3  4  1  0
  4  5  2  0
  5  6  1  0
  6  7  1  0
  7  8  2  0
  7  9  2  0
  7 10  1  0
 10 11  2  0
 11 12  1  0
 12 13  2  0
 13 14  1  0
 13 15  1  0
 15 16  2  0
 16 17  1  0
  5 18  1  0
 18 19  2  0
 18 20  1  0
 20 21  1  0
 21 22  2  0
 22 23  1  0
 23 24  2  0
 24 25  1  0
 25 26  2  0
 26  4  1  0
 16 10  1  0
 26 21  1  0
M  END
>  <Compound_ID>  (37) 
C06784673

>  <Active>  (37) 
0

>  <Smiles>  (37) 
CCNc1c(NS(=O)(=O)c2ccc(C)cc2C)c(=O)oc2ccccc12

>  <canonical_smi>  (37) 
CCNc1c(NS(=O)(=O)c2ccc(C)cc2C)c(=O)oc2ccccc12

>  <Set>  (37) 
G2 inactive

>  <Set_type>  (37) 
Train

>  <MW>  (37) 
372.45

>  <HBD>  (37) 
2

>  <HBA>  (37) 
5

>  <NRB>  (37) 
5

>  <NR>  (37) 
3

>  <NAR>  (37) 
3

>  <PSA>  (37) 
88.41

>  <Standard Type>  (37) 
nan

>  <Standard Relation>  (37) 
nan

>  <Standard Units>  (37) 
nan

>  <Standard Value>  (37) 
nan

>  <Assay ChEMBL ID>  (37) 
nan

>  <Assay Description>  (37) 
nan

>  <BAO Label>  (37) 
nan

$$$$

     RDKit          2D

 33 36  0  0  0  0  0  0  0  0999 V2000
   -3.1639   -2.5163    0.0000 C   0  0  0  0  0  0  0  0  0  0  0  0
   -3.7500   -3.8971    0.0000 C   0  0  0  0  0  0  0  0  0  0  0  0
   -5.2500   -3.8971    0.0000 N   0  0  0  0  0  0  0  0  0  0  0  0
   -6.0000   -5.1962    0.0000 N   0  0  0  0  0  0  0  0  0  0  0  0
   -7.5000   -5.1962    0.0000 C   0  0  0  0  0  0  0  0  0  0  0  0
   -8.2500   -6.4952    0.0000 N   0  0  0  0  0  0  0  0  0  0  0  0
   -8.2500   -3.8971    0.0000 S   0  0  0  0  0  0  0  0  0  0  0  0
   -3.0000   -5.1962    0.0000 C   0  0  0  0  0  0  0  0  0  0  0  0
   -3.7500   -6.4952    0.0000 C   0  0  0  0  0  0  0  0  0  0  0  0
   -3.0000   -7.7942    0.0000 N   0  0  0  0  0  4  0  0  0  0  0  0
   -1.5000   -7.7942    0.0000 C   0  0  0  0  0  0  0  0  0  0  0  0
   -0.7500   -9.0933    0.0000 C   0  0  0  0  0  0  0  0  0  0  0  0
   -1.5000  -10.3923    0.0000 C   0  0  0  0  0  0  0  0  0  0  0  0
   -3.0000  -10.3923    0.0000 C   0  0  0  0  0  0  0  0  0  0  0  0
   -3.7500   -9.0933    0.0000 C   0  0  0  0  0  0  0  0  0  0  0  0
   -1.5000   -5.1962    0.0000 C   0  0  0  0  0  0  0  0  0  0  0  0
   -0.7500   -6.4952    0.0000 C   0  0  0  0  0  0  0  0  0  0  0  0
    0.7500   -6.4952    0.0000 C   0  0  0  0  0  0  0  0  0  0  0  0
    1.5000   -7.7942    0.0000 C   0  0  0  0  0  0  0  0  0  0  0  0
    0.7500   -9.0933    0.0000 C   0  0  0  0  0  0  0  0  0  0  0  0
   -0.7500   -9.0933    0.0000 C   0  0  0  0  0  0  0  0  0  0  0  0
   -1.5000   -7.7942    0.0000 C   0  0  0  0  0  0  0  0  0  0  0  0
   -0.7500   -3.8971    0.0000 C   0  0  0  0  0  0  0  0  0  0  0  0
    0.7500   -3.8971    0.0000 C   0  0  0  0  0  0  0  0  0  0  0  0
    1.5000   -2.5981    0.0000 O   0  0  0  0  0  0  0  0  0  0  0  0
    0.7500   -1.2990    0.0000 C   0  0  0  0  0  0  0  0  0  0  0  0
    1.5000    0.0000    0.0000 C   0  0  0  0  0  0  0  0  0  0  0  0
    0.7500    1.2990    0.0000 C   0  0  0  0  0  0  0  0  0  0  0  0
   -0.7500    1.2990    0.0000 C   0  0  0  0  0  0  0  0  0  0  0  0
   -1.5000    0.0000    0.0000 C   0  0  0  0  0  0  0  0  0  0  0  0
   -0.7500   -1.2990    0.0000 C   0  0  0  0  0  0  0  0  0  0  0  0
   -1.5000   -2.5981    0.0000 C   0  0  0  0  0  0  0  0  0  0  0  0
   -2.9888   -2.4152    0.0000 O   0  0  0  0  0  0  0  0  0  0  0  0
  1  2  1  0
  2  3  2  0
  3  4  1  0
  4  5  1  0
  5  6  1  0
  5  7  2  0
  2  8  1  0
  8  9  1  1
  9 10  1  0
 10 11  1  0
 11 12  1  0
 12 13  1  0
 13 14  1  0
 14 15  1  0
  8 16  1  0
 16 17  1  1
 17 18  2  0
 18 19  1  0
 19 20  2  0
 20 21  1  0
 21 22  2  0
 16 23  1  0
 23 24  1  1
 24 25  1  0
 25 26  1  0
 26 27  2  0
 27 28  1  0
 28 29  2  0
 29 30  1  0
 30 31  2  0
 31 32  1  0
 32 33  2  0
 15 10  1  0
 22 17  1  0
 32 23  1  0
 31 26  1  0
M  CHG  1  10   1
M  END
>  <Compound_ID>  (38) 
C16958119

>  <Active>  (38) 
0

>  <Smiles>  (38) 
C/C(=N/NC(N)=S)[C@H](C[NH+]1CCCCC1)[C@H](c1ccccc1)[C@@H]1COc2ccccc2C1=O

>  <canonical_smi>  (38) 
C/C(=N/NC(N)=S)[C@H](C[NH+]1CCCCC1)[C@H](c1ccccc1)[C@@H]1COc2ccccc2C1=O

>  <Set>  (38) 
G2 inactive

>  <Set_type>  (38) 
Train

>  <MW>  (38) 
465.64

>  <HBD>  (38) 
3

>  <HBA>  (38) 
5

>  <NRB>  (38) 
7

>  <NR>  (38) 
4

>  <NAR>  (38) 
2

>  <PSA>  (38) 
81.15

>  <Standard Type>  (38) 
nan

>  <Standard Relation>  (38) 
nan

>  <Standard Units>  (38) 
nan

>  <Standard Value>  (38) 
nan

>  <Assay ChEMBL ID>  (38) 
nan

>  <Assay Description>  (38) 
nan

>  <BAO Label>  (38) 
nan

$$$$

     RDKit          2D

 33 35  0  0  0  0  0  0  0  0999 V2000
    3.0000    0.0000    0.0000 C   0  0  0  0  0  0  0  0  0  0  0  0
    1.5000    0.0000    0.0000 C   0  0  0  0  0  0  0  0  0  0  0  0
    0.7500   -1.2990    0.0000 C   0  0  0  0  0  0  0  0  0  0  0  0
    1.5000   -2.5981    0.0000 C   0  0  0  0  0  0  0  0  0  0  0  0
    3.0000   -2.5981    0.0000 O   0  0  0  0  0  0  0  0  0  0  0  0
    0.7500   -3.8971    0.0000 C   0  0  0  0  0  0  0  0  0  0  0  0
    1.5000   -5.1962    0.0000 C   0  0  0  0  0  0  0  0  0  0  0  0
    0.7500   -6.4952    0.0000 C   0  0  0  0  0  0  0  0  0  0  0  0
    3.0000   -5.1962    0.0000 C   0  0  0  0  0  0  0  0  0  0  0  0
    3.7500   -3.8971    0.0000 O   0  0  0  0  0  0  0  0  0  0  0  0
    3.7500   -6.4952    0.0000 N   0  0  0  0  0  0  0  0  0  0  0  0
    5.2500   -6.4952    0.0000 C   0  0  0  0  0  0  0  0  0  0  0  0
    6.0000   -7.7942    0.0000 C   0  0  0  0  0  0  0  0  0  0  0  0
    7.5000   -7.7942    0.0000 N   0  0  0  0  0  4  0  0  0  0  0  0
    8.3817   -6.5807    0.0000 C   0  0  0  0  0  0  0  0  0  0  0  0
    9.8083   -7.0442    0.0000 C   0  0  0  0  0  0  0  0  0  0  0  0
    9.8083   -8.5442    0.0000 C   0  0  0  0  0  0  0  0  0  0  0  0
    8.3817   -9.0078    0.0000 C   0  0  0  0  0  0  0  0  0  0  0  0
   -0.7500   -3.8971    0.0000 C   0  0  0  0  0  0  0  0  0  0  0  0
   -1.5000   -2.5981    0.0000 C   0  0  0  0  0  0  0  0  0  0  0  0
   -0.7500   -1.2990    0.0000 C   0  0  0  0  0  0  0  0  0  0  0  0
   -2.2500   -1.2990    0.0000 C   0  0  0  0  0  0  0  0  0  0  0  0
   -1.5000    0.0000    0.0000 C   0  0  0  0  0  0  0  0  0  0  0  0
   -0.7500    1.2990    0.0000 C   0  0  0  0  0  0  0  0  0  0  0  0
    0.7500    1.2990    0.0000 C   0  0  0  0  0  0  0  0  0  0  0  0
    1.5000    2.5981    0.0000 N   0  0  0  0  0  0  0  0  0  0  0  0
    0.7500    3.8971    0.0000 C   0  0  0  0  0  0  0  0  0  0  0  0
   -0.7500    3.8971    0.0000 O   0  0  0  0  0  0  0  0  0  0  0  0
    1.5000    5.1962    0.0000 C   0  0  0  0  0  0  0  0  0  0  0  0
    0.7500    6.4952    0.0000 C   0  0  0  0  0  0  0  0  0  0  0  0
    2.0490    7.2452    0.0000 C   0  0  0  0  0  0  0  0  0  0  0  0
   -0.5490    5.7452    0.0000 C   0  0  0  0  0  0  0  0  0  0  0  0
    0.0000    7.7942    0.0000 C   0  0  0  0  0  0  0  0  0  0  0  0
  2  1  1  1
  2  3  1  0
  3  4  1  0
  4  5  1  1
  4  6  1  0
  6  7  1  0
  7  8  1  1
  7  9  1  0
  9 10  2  0
  9 11  1  0
 11 12  1  0
 12 13  1  0
 13 14  1  0
 14 15  1  0
 15 16  1  0
 16 17  1  0
 17 18  1  0
  6 19  1  6
 19 20  1  0
 20 21  1  0
 21 22  1  6
 21 23  1  0
 23 24  1  0
 24 25  1  0
 25 26  1  6
 26 27  1  0
 27 28  2  0
 27 29  1  0
 29 30  1  0
 30 31  1  0
 30 32  1  0
 30 33  1  0
 25  2  1  0
  3 21  1  6
 18 14  1  0
M  CHG  1  14   1
M  END
>  <Compound_ID>  (39) 
C30883703

>  <Active>  (39) 
0

>  <Smiles>  (39) 
C[C@H]1[C@@H]2[C@@H](O)[C@H]([C@H](C)C(=O)NCC[NH+]3CCCC3)CC[C@@]2(C)CC[C@@H]1NC(=O)CC(C)(C)C

>  <canonical_smi>  (39) 
C[C@H](C(=O)NCC[NH+]1CCCC1)[C@@H]1CC[C@@]2(C)CC[C@H](NC(=O)CC(C)(C)C)[C@@H](C)[C@@H]2[C@H]1O

>  <Set>  (39) 
G2 inactive

>  <Set_type>  (39) 
Train

>  <MW>  (39) 
464.72

>  <HBD>  (39) 
4

>  <HBA>  (39) 
3

>  <NRB>  (39) 
7

>  <NR>  (39) 
3

>  <NAR>  (39) 
0

>  <PSA>  (39) 
82.87

>  <Standard Type>  (39) 
nan

>  <Standard Relation>  (39) 
nan

>  <Standard Units>  (39) 
nan

>  <Standard Value>  (39) 
nan

>  <Assay ChEMBL ID>  (39) 
nan

>  <Assay Description>  (39) 
nan

>  <BAO Label>  (39) 
nan

$$$$

     RDKit          2D

 36 41  0  0  0  0  0  0  0  0999 V2000
    5.2500   -9.0933    0.0000 C   0  0  0  0  0  0  0  0  0  0  0  0
    3.7500   -9.0933    0.0000 O   0  0  0  0  0  0  0  0  0  0  0  0
    3.0000   -7.7942    0.0000 C   0  0  0  0  0  0  0  0  0  0  0  0
    1.5000   -7.7942    0.0000 C   0  0  0  0  0  0  0  0  0  0  0  0
    0.7500   -6.4952    0.0000 C   0  0  0  0  0  0  0  0  0  0  0  0
    1.5000   -5.1962    0.0000 C   0  0  0  0  0  0  0  0  0  0  0  0
    0.7500   -3.8971    0.0000 C   0  0  0  0  0  0  0  0  0  0  0  0
    1.5000   -2.5981    0.0000 O   0  0  0  0  0  0  0  0  0  0  0  0
    0.7500   -1.2990    0.0000 C   0  0  0  0  0  0  0  0  0  0  0  0
    1.5000    0.0000    0.0000 C   0  0  0  0  0  0  0  0  0  0  0  0
    0.7500    1.2990    0.0000 C   0  0  0  0  0  0  0  0  0  0  0  0
   -0.7500    1.2990    0.0000 C   0  0  0  0  0  0  0  0  0  0  0  0
   -1.5000    0.0000    0.0000 C   0  0  0  0  0  0  0  0  0  0  0  0
   -0.7500   -1.2990    0.0000 C   0  0  0  0  0  0  0  0  0  0  0  0
   -1.5000   -2.5981    0.0000 C   0  0  0  0  0  0  0  0  0  0  0  0
   -0.7500   -3.8971    0.0000 C   0  0  0  0  0  0  0  0  0  0  0  0
   -1.5000   -5.1962    0.0000 C   0  0  0  0  0  0  0  0  0  0  0  0
   -0.7500   -6.4952    0.0000 C   0  0  0  0  0  0  0  0  0  0  0  0
   -1.5000   -7.7942    0.0000 C   0  0  0  0  0  0  0  0  0  0  0  0
   -0.7500   -9.0933    0.0000 C   0  0  0  0  0  0  0  0  0  0  0  0
    0.7500   -9.0933    0.0000 C   0  0  0  0  0  0  0  0  0  0  0  0
    1.5000  -10.3923    0.0000 F   0  0  0  0  0  0  0  0  0  0  0  0
    1.5000   -7.7942    0.0000 C   0  0  0  0  0  0  0  0  0  0  0  0
    0.7500   -6.4952    0.0000 C   0  0  0  0  0  0  0  0  0  0  0  0
   -3.0000   -5.1962    0.0000 N   0  0  0  0  0  0  0  0  0  0  0  0
   -4.0037   -6.3109    0.0000 N   0  0  0  0  0  0  0  0  0  0  0  0
   -5.3740   -5.7008    0.0000 N   0  0  0  0  0  0  0  0  0  0  0  0
   -5.2172   -4.2090    0.0000 N   0  0  0  0  0  0  0  0  0  0  0  0
   -3.7500   -3.8971    0.0000 C   0  0  0  0  0  0  0  0  0  0  0  0
   -3.0000   -2.5981    0.0000 N   0  0  0  0  0  0  0  0  0  0  0  0
    3.0000   -5.1962    0.0000 C   0  0  0  0  0  0  0  0  0  0  0  0
    3.7500   -3.8971    0.0000 O   0  0  0  0  0  0  0  0  0  0  0  0
    5.2500   -3.8971    0.0000 C   0  0  0  0  0  0  0  0  0  0  0  0
    3.7500   -6.4952    0.0000 C   0  0  0  0  0  0  0  0  0  0  0  0
    5.2500   -6.4952    0.0000 O   0  0  0  0  0  0  0  0  0  0  0  0
    6.0000   -7.7942    0.0000 C   0  0  0  0  0  0  0  0  0  0  0  0
  1  2  1  0
  2  3  1  0
  3  4  2  0
  4  5  1  0
  5  6  2  0
  7  6  1  6
  7  8  1  0
  8  9  1  0
  9 10  2  0
 10 11  1  0
 11 12  2  0
 12 13  1  0
 13 14  2  0
 14 15  1  0
 15 16  2  0
 16 17  1  0
 17 18  1  1
 18 19  2  0
 19 20  1  0
 20 21  2  0
 21 22  1  0
 21 23  1  0
 23 24  2  0
 17 25  1  0
 25 26  1  0
 26 27  2  0
 27 28  1  0
 28 29  2  0
 29 30  1  0
  6 31  1  0
 31 32  1  0
 32 33  1  0
 31 34  2  0
 34 35  1  0
 35 36  1  0
 34  3  1  0
 16  7  1  0
 24 18  1  0
 29 25  1  0
 14  9  1  0
 30 15  1  0
M  END
>  <Compound_ID>  (40) 
C28055333

>  <Active>  (40) 
0

>  <Smiles>  (40) 
COc1ccc([C@H]2Oc3ccccc3C3=C2[C@@H](c2ccc(F)cc2)n2nnnc2N3)c(OC)c1OC

>  <canonical_smi>  (40) 
COc1ccc([C@H]2Oc3ccccc3C3=C2[C@@H](c2ccc(F)cc2)n2nnnc2N3)c(OC)c1OC

>  <Set>  (40) 
G2 inactive

>  <Set_type>  (40) 
Train

>  <MW>  (40) 
487.49

>  <HBD>  (40) 
1

>  <HBA>  (40) 
8

>  <NRB>  (40) 
5

>  <NR>  (40) 
6

>  <NAR>  (40) 
4

>  <PSA>  (40) 
92.55

>  <Standard Type>  (40) 
nan

>  <Standard Relation>  (40) 
nan

>  <Standard Units>  (40) 
nan

>  <Standard Value>  (40) 
nan

>  <Assay ChEMBL ID>  (40) 
nan

>  <Assay Description>  (40) 
nan

>  <BAO Label>  (40) 
nan

$$$$

     RDKit          2D

 22 24  0  0  0  0  0  0  0  0999 V2000
    1.3299    5.6152    0.0000 C   0  0  0  0  0  0  0  0  0  0  0  0
   -0.0967    5.1517    0.0000 C   0  0  0  0  0  0  0  0  0  0  0  0
   -1.2114    6.1554    0.0000 Cl  0  0  0  0  0  0  0  0  0  0  0  0
   -0.4086    3.6844    0.0000 C   0  0  0  0  0  0  0  0  0  0  0  0
    0.7062    2.6807    0.0000 N   0  0  0  0  0  0  0  0  0  0  0  0
    0.3943    1.2135    0.0000 C   0  0  0  0  0  0  0  0  0  0  0  0
    1.2760    0.0000    0.0000 S   0  0  0  0  0  0  0  0  0  0  0  0
    0.3943   -1.2135    0.0000 C   0  0  0  0  0  0  0  0  0  0  0  0
   -1.0323   -0.7500    0.0000 C   0  0  0  0  0  0  0  0  0  0  0  0
   -2.2458   -1.6317    0.0000 C   0  0  0  0  0  0  0  0  0  0  0  0
   -3.6161   -1.0216    0.0000 C   0  0  0  0  0  0  0  0  0  0  0  0
   -4.8297   -1.9033    0.0000 C   0  0  0  0  0  0  0  0  0  0  0  0
   -4.6729   -3.3950    0.0000 C   0  0  0  0  0  0  0  0  0  0  0  0
   -3.3025   -4.0051    0.0000 C   0  0  0  0  0  0  0  0  0  0  0  0
   -3.1458   -5.4969    0.0000 N   0  0  0  0  0  4  0  0  0  0  0  0
   -1.7754   -6.1070    0.0000 O   0  0  0  0  0  0  0  0  0  0  0  0
   -4.3593   -6.3786    0.0000 O   0  0  0  0  0  1  0  0  0  0  0  0
   -2.0890   -3.1235    0.0000 C   0  0  0  0  0  0  0  0  0  0  0  0
   -1.0323    0.7500    0.0000 C   0  0  0  0  0  0  0  0  0  0  0  0
   -2.1470    1.7537    0.0000 C   0  0  0  0  0  0  0  0  0  0  0  0
   -3.5736    1.2902    0.0000 O   0  0  0  0  0  0  0  0  0  0  0  0
   -1.8351    3.2209    0.0000 N   0  0  0  0  0  0  0  0  0  0  0  0
  2  1  1  6
  2  3  1  0
  2  4  1  0
  4  5  2  0
  5  6  1  0
  6  7  1  0
  7  8  1  0
  8  9  2  0
  9 10  1  0
 10 11  2  0
 11 12  1  0
 12 13  2  0
 13 14  1  0
 14 15  1  0
 15 16  2  0
 15 17  1  0
 14 18  2  0
  9 19  1  0
 19 20  1  0
 20 21  2  0
 20 22  1  0
 22  4  1  0
 19  6  2  0
 18 10  1  0
M  CHG  2  15   1  17  -1
M  END
>  <Compound_ID>  (41) 
C36275491

>  <Active>  (41) 
0

>  <Smiles>  (41) 
C[C@@H](Cl)c1nc2scc(-c3cccc([N+](=O)[O-])c3)c2c(=O)[nH]1

>  <canonical_smi>  (41) 
C[C@@H](Cl)c1nc2scc(-c3cccc([N+](=O)[O-])c3)c2c(=O)[nH]1

>  <Set>  (41) 
G2 inactive

>  <Set_type>  (41) 
Train

>  <MW>  (41) 
335.77

>  <HBD>  (41) 
1

>  <HBA>  (41) 
4

>  <NRB>  (41) 
3

>  <NR>  (41) 
3

>  <NAR>  (41) 
3

>  <PSA>  (41) 
88.89

>  <Standard Type>  (41) 
nan

>  <Standard Relation>  (41) 
nan

>  <Standard Units>  (41) 
nan

>  <Standard Value>  (41) 
nan

>  <Assay ChEMBL ID>  (41) 
nan

>  <Assay Description>  (41) 
nan

>  <BAO Label>  (41) 
nan

$$$$

     RDKit          2D

 23 26  0  0  0  0  0  0  0  0999 V2000
    3.0770    7.2437    0.0000 C   0  0  0  0  0  0  0  0  0  0  0  0
    1.6098    6.9319    0.0000 C   0  0  0  0  0  0  0  0  0  0  0  0
    0.4951    7.9356    0.0000 C   0  0  0  0  0  0  0  0  0  0  0  0
   -0.8040    7.1856    0.0000 C   0  0  0  0  0  0  0  0  0  0  0  0
   -0.4921    5.7184    0.0000 C   0  0  0  0  0  0  0  0  0  0  0  0
   -1.4958    4.6036    0.0000 C   0  0  0  0  0  0  0  0  0  0  0  0
   -1.0323    3.1771    0.0000 C   0  0  0  0  0  0  0  0  0  0  0  0
    0.3943    2.7135    0.0000 S   0  0  0  0  0  0  0  0  0  0  0  0
    0.3943    1.2135    0.0000 C   0  0  0  0  0  0  0  0  0  0  0  0
    1.2760    0.0000    0.0000 N   0  0  0  0  0  0  0  0  0  0  0  0
    0.3943   -1.2135    0.0000 C   0  0  0  0  0  0  0  0  0  0  0  0
   -1.0323   -0.7500    0.0000 N   0  0  0  0  0  0  0  0  0  0  0  0
   -1.0323    0.7500    0.0000 N   0  0  0  0  0  0  0  0  0  0  0  0
   -1.9140    1.9635    0.0000 C   0  0  0  0  0  0  0  0  0  0  0  0
   -3.4140    1.9635    0.0000 O   0  0  0  0  0  1  0  0  0  0  0  0
   -2.9630    4.9155    0.0000 N   0  0  0  0  0  4  0  0  0  0  0  0
   -3.8806    3.7289    0.0000 C   0  0  0  0  0  0  0  0  0  0  0  0
   -5.3805    3.7065    0.0000 C   0  0  0  0  0  0  0  0  0  0  0  0
   -6.3331    4.8651    0.0000 C   0  0  0  0  0  0  0  0  0  0  0  0
   -6.0213    6.3323    0.0000 C   0  0  0  0  0  0  0  0  0  0  0  0
   -4.6797    7.0033    0.0000 C   0  0  0  0  0  0  0  0  0  0  0  0
   -3.3187    6.3727    0.0000 C   0  0  0  0  0  0  0  0  0  0  0  0
    0.9997    5.5616    0.0000 O   0  0  0  0  0  0  0  0  0  0  0  0
  1  2  1  0
  2  3  2  0
  3  4  1  0
  4  5  2  0
  5  6  1  0
  6  7  1  0
  7  8  1  0
  8  9  1  0
  9 10  2  0
 10 11  1  0
 11 12  2  0
 12 13  1  0
 13 14  1  0
 14 15  1  0
  6 16  1  6
 16 17  1  0
 17 18  1  0
 18 19  1  0
 19 20  1  0
 20 21  1  0
 21 22  1  0
  5 23  1  0
 23  2  1  0
 14  7  2  0
 22 16  1  0
 13  9  1  0
M  CHG  2  15  -1  16   1
M  END
>  <Compound_ID>  (42) 
C41637616

>  <Active>  (42) 
0

>  <Smiles>  (42) 
Cc1ccc([C@H](c2sc3ncnn3c2[O-])[NH+]2CCCCCC2)o1

>  <canonical_smi>  (42) 
Cc1ccc([C@H](c2sc3ncnn3c2[O-])[NH+]2CCCCCC2)o1

>  <Set>  (42) 
G2 inactive

>  <Set_type>  (42) 
Train

>  <MW>  (42) 
332.43

>  <HBD>  (42) 
1

>  <HBA>  (42) 
4

>  <NRB>  (42) 
3

>  <NR>  (42) 
4

>  <NAR>  (42) 
3

>  <PSA>  (42) 
70.83

>  <Standard Type>  (42) 
nan

>  <Standard Relation>  (42) 
nan

>  <Standard Units>  (42) 
nan

>  <Standard Value>  (42) 
nan

>  <Assay ChEMBL ID>  (42) 
nan

>  <Assay Description>  (42) 
nan

>  <BAO Label>  (42) 
nan

$$$$

     RDKit          2D

 33 38  0  0  0  0  0  0  0  0999 V2000
    3.2475    2.1406    0.0000 O   0  0  0  0  0  0  0  0  0  0  0  0
    2.1328    3.1443    0.0000 C   0  0  0  0  0  0  0  0  0  0  0  0
    2.4446    4.6115    0.0000 N   0  0  0  0  0  0  0  0  0  0  0  0
    3.8712    5.0750    0.0000 C   0  0  0  0  0  0  0  0  0  0  0  0
    4.1831    6.5422    0.0000 C   0  0  0  0  0  0  0  0  0  0  0  0
    3.1794    7.6570    0.0000 C   0  0  0  0  0  0  0  0  0  0  0  0
    3.9294    8.9560    0.0000 N   0  0  0  0  0  0  0  0  0  0  0  0
    3.7726   10.4478    0.0000 C   0  0  0  0  0  0  0  0  0  0  0  0
    5.1429   11.0579    0.0000 C   0  0  0  0  0  0  0  0  0  0  0  0
    6.1466    9.9432    0.0000 S   0  0  0  0  0  0  0  0  0  0  0  0
    5.3966    8.6441    0.0000 C   0  0  0  0  0  0  0  0  0  0  0  0
    5.5534    7.1523    0.0000 N   0  0  0  0  0  0  0  0  0  0  0  0
    0.7062    2.6807    0.0000 C   0  0  0  0  0  0  0  0  0  0  0  0
   -0.4086    3.6844    0.0000 C   0  0  0  0  0  0  0  0  0  0  0  0
   -1.8351    3.2209    0.0000 C   0  0  0  0  0  0  0  0  0  0  0  0
   -2.9499    4.2246    0.0000 C   0  0  0  0  0  0  0  0  0  0  0  0
   -2.6380    5.6918    0.0000 C   0  0  0  0  0  0  0  0  0  0  0  0
   -3.7527    6.6955    0.0000 C   0  0  0  0  0  0  0  0  0  0  0  0
   -5.1793    6.2320    0.0000 C   0  0  0  0  0  0  0  0  0  0  0  0
   -5.4912    4.7648    0.0000 N   0  0  0  0  0  0  0  0  0  0  0  0
   -4.3764    3.7611    0.0000 C   0  0  0  0  0  0  0  0  0  0  0  0
   -2.1470    1.7537    0.0000 N   0  0  0  0  0  0  0  0  0  0  0  0
   -1.0323    0.7500    0.0000 C   0  0  0  0  0  0  0  0  0  0  0  0
    0.3943    1.2135    0.0000 C   0  0  0  0  0  0  0  0  0  0  0  0
    1.2760    0.0000    0.0000 C   0  0  0  0  0  0  0  0  0  0  0  0
    0.3943   -1.2135    0.0000 N   0  0  0  0  0  0  0  0  0  0  0  0
   -1.0323   -0.7500    0.0000 N   0  0  0  0  0  0  0  0  0  0  0  0
   -2.2458   -1.6317    0.0000 C   0  0  0  0  0  0  0  0  0  0  0  0
   -2.0890   -3.1235    0.0000 C   0  0  0  0  0  0  0  0  0  0  0  0
   -0.7900   -3.8735    0.0000 C   0  0  0  0  0  0  0  0  0  0  0  0
   -1.1018   -5.3407    0.0000 C   0  0  0  0  0  0  0  0  0  0  0  0
   -2.5936   -5.4975    0.0000 C   0  0  0  0  0  0  0  0  0  0  0  0
   -3.2037   -4.1272    0.0000 O   0  0  0  0  0  0  0  0  0  0  0  0
  1  2  2  0
  2  3  1  0
  3  4  1  0
  4  5  1  0
  5  6  2  0
  6  7  1  0
  7  8  1  0
  8  9  2  0
  9 10  1  0
 10 11  1  0
 11 12  2  0
  2 13  1  0
 13 14  2  0
 14 15  1  0
 15 16  1  0
 16 17  2  0
 17 18  1  0
 18 19  2  0
 19 20  1  0
 20 21  2  0
 15 22  2  0
 22 23  1  0
 23 24  2  0
 24 25  1  0
 25 26  2  0
 26 27  1  0
 27 28  1  0
 28 29  1  0
 29 30  2  0
 30 31  1  0
 31 32  2  0
 32 33  1  0
 12  5  1  0
 24 13  1  0
 33 29  1  0
 11  7  1  0
 21 16  1  0
 27 23  1  0
M  END
>  <Compound_ID>  (43) 
C59878092

>  <Active>  (43) 
0

>  <Smiles>  (43) 
O=C(NCc1cn2ccsc2n1)c1cc(-c2cccnc2)nc2c1cnn2Cc1ccco1

>  <canonical_smi>  (43) 
O=C(NCc1cn2ccsc2n1)c1cc(-c2cccnc2)nc2c1cnn2Cc1ccco1

>  <Set>  (43) 
G2 inactive

>  <Set_type>  (43) 
Train

>  <MW>  (43) 
455.5

>  <HBD>  (43) 
1

>  <HBA>  (43) 
6

>  <NRB>  (43) 
6

>  <NR>  (43) 
6

>  <NAR>  (43) 
6

>  <PSA>  (43) 
103.14

>  <Standard Type>  (43) 
nan

>  <Standard Relation>  (43) 
nan

>  <Standard Units>  (43) 
nan

>  <Standard Value>  (43) 
nan

>  <Assay ChEMBL ID>  (43) 
nan

>  <Assay Description>  (43) 
nan

>  <BAO Label>  (43) 
nan

$$$$

     RDKit          2D

 19 20  0  0  0  0  0  0  0  0999 V2000
    3.0000    0.0000    0.0000 C   0  0  0  0  0  0  0  0  0  0  0  0
    1.5000    0.0000    0.0000 C   0  0  0  0  0  0  0  0  0  0  0  0
    0.7500   -1.2990    0.0000 C   0  0  0  0  0  0  0  0  0  0  0  0
   -0.7500   -1.2990    0.0000 C   0  0  0  0  0  0  0  0  0  0  0  0
   -1.5000   -2.5981    0.0000 O   0  0  0  0  0  0  0  0  0  0  0  0
   -3.0000   -2.5981    0.0000 C   0  0  0  0  0  0  0  0  0  0  0  0
   -3.7500   -1.2990    0.0000 C   0  0  0  0  0  0  0  0  0  0  0  0
   -5.2500   -1.2990    0.0000 C   0  0  0  0  0  0  0  0  0  0  0  0
   -6.0000   -2.5981    0.0000 C   0  0  0  0  0  0  0  0  0  0  0  0
   -7.5000   -2.5981    0.0000 C   0  0  0  0  0  0  0  0  0  0  0  0
   -9.0000   -2.5981    0.0000 N   0  0  0  0  0  0  0  0  0  0  0  0
   -5.2500   -3.8971    0.0000 C   0  0  0  0  0  0  0  0  0  0  0  0
   -6.0000   -5.1962    0.0000 C   0  0  0  0  0  0  0  0  0  0  0  0
   -6.7500   -6.4952    0.0000 N   0  0  0  0  0  0  0  0  0  0  0  0
   -3.7500   -3.8971    0.0000 C   0  0  0  0  0  0  0  0  0  0  0  0
   -1.5000    0.0000    0.0000 C   0  0  0  0  0  0  0  0  0  0  0  0
   -0.7500    1.2990    0.0000 C   0  0  0  0  0  0  0  0  0  0  0  0
    0.7500    1.2990    0.0000 C   0  0  0  0  0  0  0  0  0  0  0  0
    1.5000    2.5981    0.0000 Cl  0  0  0  0  0  0  0  0  0  0  0  0
  1  2  1  0
  2  3  2  0
  3  4  1  0
  4  5  1  0
  5  6  1  0
  6  7  2  0
  7  8  1  0
  8  9  2  0
  9 10  1  0
 10 11  3  0
  9 12  1  0
 12 13  1  0
 13 14  3  0
 12 15  2  0
  4 16  2  0
 16 17  1  0
 17 18  2  0
 18 19  1  0
 18  2  1  0
 15  6  1  0
M  END
>  <Compound_ID>  (44) 
C00482186

>  <Active>  (44) 
0

>  <Smiles>  (44) 
Cc1cc(Oc2ccc(C#N)c(C#N)c2)ccc1Cl

>  <canonical_smi>  (44) 
Cc1cc(Oc2ccc(C#N)c(C#N)c2)ccc1Cl

>  <Set>  (44) 
G2 inactive

>  <Set_type>  (44) 
Train

>  <MW>  (44) 
268.7

>  <HBD>  (44) 
0

>  <HBA>  (44) 
3

>  <NRB>  (44) 
2

>  <NR>  (44) 
2

>  <NAR>  (44) 
2

>  <PSA>  (44) 
56.81

>  <Standard Type>  (44) 
nan

>  <Standard Relation>  (44) 
nan

>  <Standard Units>  (44) 
nan

>  <Standard Value>  (44) 
nan

>  <Assay ChEMBL ID>  (44) 
nan

>  <Assay Description>  (44) 
nan

>  <BAO Label>  (44) 
nan

$$$$

     RDKit          2D

 12 12  0  0  0  0  0  0  0  0999 V2000
    2.6491    0.9642    0.0000 C   0  0  0  0  0  0  0  0  0  0  0  0
    1.5000    0.0000    0.0000 C   0  0  0  0  0  0  0  0  0  0  0  0
    2.6491   -0.9642    0.0000 C   0  0  0  0  0  0  0  0  0  0  0  0
    2.3886   -2.4414    0.0000 Cl  0  0  0  0  0  0  0  0  0  0  0  0
    0.7500   -1.2990    0.0000 C   0  0  0  0  0  0  0  0  0  0  0  0
   -0.7500   -1.2990    0.0000 O   0  0  0  0  0  0  0  0  0  0  0  0
   -1.5000    0.0000    0.0000 P   0  0  0  0  0  0  0  0  0  0  0  0
   -2.6491    0.9642    0.0000 O   0  0  0  0  0  0  0  0  0  0  0  0
   -2.6491   -0.9642    0.0000 N   0  0  0  0  0  0  0  0  0  0  0  0
   -4.0586   -0.4512    0.0000 N   0  0  0  0  0  0  0  0  0  0  0  0
   -0.7500    1.2990    0.0000 O   0  0  0  0  0  0  0  0  0  0  0  0
    0.7500    1.2990    0.0000 C   0  0  0  0  0  0  0  0  0  0  0  0
  1  2  1  0
  2  3  1  0
  3  4  1  0
  2  5  1  0
  5  6  1  0
  6  7  1  0
  7  8  2  0
  7  9  1  0
  9 10  1  0
  7 11  1  0
 11 12  1  0
 12  2  1  0
M  END
>  <Compound_ID>  (45) 
C01592886

>  <Active>  (45) 
0

>  <Smiles>  (45) 
CC1(CCl)COP(=O)(NN)OC1

>  <canonical_smi>  (45) 
CC1(CCl)COP(=O)(NN)OC1

>  <Set>  (45) 
G2 inactive

>  <Set_type>  (45) 
Train

>  <MW>  (45) 
214.59

>  <HBD>  (45) 
2

>  <HBA>  (45) 
5

>  <NRB>  (45) 
2

>  <NR>  (45) 
1

>  <NAR>  (45) 
0

>  <PSA>  (45) 
73.58

>  <Standard Type>  (45) 
nan

>  <Standard Relation>  (45) 
nan

>  <Standard Units>  (45) 
nan

>  <Standard Value>  (45) 
nan

>  <Assay ChEMBL ID>  (45) 
nan

>  <Assay Description>  (45) 
nan

>  <BAO Label>  (45) 
nan

$$$$

     RDKit          2D

 14 15  0  0  0  0  0  0  0  0999 V2000
    2.6491    0.9642    0.0000 C   0  0  0  0  0  0  0  0  0  0  0  0
    1.5000    0.0000    0.0000 C   0  0  0  0  0  0  0  0  0  0  0  0
    2.6491   -0.9642    0.0000 C   0  0  0  0  0  0  0  0  0  0  0  0
    0.7500   -1.2990    0.0000 C   0  0  0  0  0  0  0  0  0  0  0  0
   -0.7500   -1.2990    0.0000 N   0  0  0  0  0  0  0  0  0  0  0  0
   -1.5000   -2.5981    0.0000 C   0  0  0  0  0  0  0  0  0  0  0  0
   -0.8899   -3.9684    0.0000 C   0  0  0  0  0  0  0  0  0  0  0  0
   -2.0046   -4.9721    0.0000 N   0  0  0  0  0  0  0  0  0  0  0  0
   -3.3037   -4.2221    0.0000 N   0  0  0  0  0  0  0  0  0  0  0  0
   -2.9918   -2.7549    0.0000 C   0  0  0  0  0  0  0  0  0  0  0  0
   -3.9955   -1.6402    0.0000 N   0  0  0  0  0  0  0  0  0  0  0  0
   -1.5000    0.0000    0.0000 C   0  0  0  0  0  0  0  0  0  0  0  0
   -0.7500    1.2990    0.0000 C   0  0  0  0  0  0  0  0  0  0  0  0
    0.7500    1.2990    0.0000 O   0  0  0  0  0  0  0  0  0  0  0  0
  1  2  1  0
  2  3  1  0
  2  4  1  0
  4  5  1  0
  5  6  1  0
  6  7  2  0
  7  8  1  0
  8  9  1  0
  9 10  2  0
 10 11  1  0
  5 12  1  0
 12 13  1  0
 13 14  1  0
 14  2  1  0
 10  6  1  0
M  END
>  <Compound_ID>  (46) 
C40999403

>  <Active>  (46) 
0

>  <Smiles>  (46) 
CC1(C)CN(c2c[nH]nc2N)CCO1

>  <canonical_smi>  (46) 
CC1(C)CN(c2c[nH]nc2N)CCO1

>  <Set>  (46) 
G2 inactive

>  <Set_type>  (46) 
Train

>  <MW>  (46) 
196.25

>  <HBD>  (46) 
2

>  <HBA>  (46) 
4

>  <NRB>  (46) 
1

>  <NR>  (46) 
2

>  <NAR>  (46) 
1

>  <PSA>  (46) 
67.17

>  <Standard Type>  (46) 
nan

>  <Standard Relation>  (46) 
nan

>  <Standard Units>  (46) 
nan

>  <Standard Value>  (46) 
nan

>  <Assay ChEMBL ID>  (46) 
nan

>  <Assay Description>  (46) 
nan

>  <BAO Label>  (46) 
nan

$$$$

     RDKit          2D

 13 13  0  0  0  0  0  0  0  0999 V2000
    2.7760    0.0000    0.0000 C   0  0  0  0  0  0  0  0  0  0  0  0
    1.2760    0.0000    0.0000 C   0  0  0  0  0  0  0  0  0  0  0  0
    0.3943    1.2135    0.0000 N   0  0  0  0  0  0  0  0  0  0  0  0
   -1.0323    0.7500    0.0000 N   0  0  0  0  0  0  0  0  0  0  0  0
   -2.2458    1.6317    0.0000 C   0  0  0  0  0  0  0  0  0  0  0  0
   -2.0890    3.1235    0.0000 C   0  0  0  0  0  0  0  0  0  0  0  0
   -0.7187    3.7336    0.0000 N   0  0  0  0  0  0  0  0  0  0  0  0
   -3.3025    4.0051    0.0000 N   0  0  0  0  0  0  0  0  0  0  0  0
   -3.1458    5.4969    0.0000 O   0  0  0  0  0  0  0  0  0  0  0  0
   -1.0323   -0.7500    0.0000 C   0  0  0  0  0  0  0  0  0  0  0  0
   -2.2458   -1.6317    0.0000 C   0  0  0  0  0  0  0  0  0  0  0  0
    0.3943   -1.2135    0.0000 C   0  0  0  0  0  0  0  0  0  0  0  0
    0.8578   -2.6401    0.0000 Br  0  0  0  0  0  0  0  0  0  0  0  0
  1  2  1  0
  2  3  2  0
  3  4  1  0
  4  5  1  0
  5  6  1  0
  6  7  1  0
  6  8  2  0
  8  9  1  0
  4 10  1  0
 10 11  1  0
 10 12  2  0
 12 13  1  0
 12  2  1  0
M  END
>  <Compound_ID>  (47) 
C12357384

>  <Active>  (47) 
0

>  <Smiles>  (47) 
Cc1nn(C/C(N)=N/O)c(C)c1Br

>  <canonical_smi>  (47) 
Cc1nn(C/C(N)=N/O)c(C)c1Br

>  <Set>  (47) 
G2 inactive

>  <Set_type>  (47) 
Train

>  <MW>  (47) 
247.1

>  <HBD>  (47) 
2

>  <HBA>  (47) 
3

>  <NRB>  (47) 
2

>  <NR>  (47) 
1

>  <NAR>  (47) 
1

>  <PSA>  (47) 
76.43

>  <Standard Type>  (47) 
nan

>  <Standard Relation>  (47) 
nan

>  <Standard Units>  (47) 
nan

>  <Standard Value>  (47) 
nan

>  <Assay ChEMBL ID>  (47) 
nan

>  <Assay Description>  (47) 
nan

>  <BAO Label>  (47) 
nan

$$$$

     RDKit          2D

 28 31  0  0  0  0  0  0  0  0999 V2000
   -0.5892   -8.7613    0.0000 O   0  0  0  0  0  0  0  0  0  0  0  0
    0.8980   -8.9571    0.0000 C   0  0  0  0  0  0  0  0  0  0  0  0
    1.8112   -7.7671    0.0000 N   0  0  0  0  0  0  0  0  0  0  0  0
    1.2371   -6.3812    0.0000 N   0  0  0  0  0  0  0  0  0  0  0  0
    2.1503   -5.1912    0.0000 C   0  0  0  0  0  0  0  0  0  0  0  0
    3.6374   -5.3870    0.0000 O   0  0  0  0  0  0  0  0  0  0  0  0
    1.5762   -3.8054    0.0000 C   0  0  0  0  0  0  0  0  0  0  0  0
    0.1177   -3.4552    0.0000 C   0  0  0  0  0  0  0  0  0  0  0  0
   -0.0000   -1.9598    0.0000 C   0  0  0  0  0  0  0  0  0  0  0  0
    1.3858   -1.3858    0.0000 C   0  0  0  0  0  0  0  0  0  0  0  0
    2.3600   -2.5264    0.0000 S   0  0  0  0  0  0  0  0  0  0  0  0
    1.9598    0.0000    0.0000 C   0  0  0  0  0  0  0  0  0  0  0  0
    1.3858    1.3858    0.0000 C   0  0  0  0  0  0  0  0  0  0  0  0
    0.0000    1.9598    0.0000 C   0  0  0  0  0  0  0  0  0  0  0  0
   -1.3858    1.3858    0.0000 C   0  0  0  0  0  0  0  0  0  0  0  0
   -1.9598    0.0000    0.0000 C   0  0  0  0  0  0  0  0  0  0  0  0
   -1.3858   -1.3858    0.0000 C   0  0  0  0  0  0  0  0  0  0  0  0
    1.4720  -10.3429    0.0000 C   0  0  0  0  0  0  0  0  0  0  0  0
    2.9306  -10.6931    0.0000 C   0  0  0  0  0  0  0  0  0  0  0  0
    3.0483  -12.1885    0.0000 S   0  0  0  0  0  0  0  0  0  0  0  0
    1.6625  -12.7625    0.0000 C   0  0  0  0  0  0  0  0  0  0  0  0
    1.3123  -14.2210    0.0000 N   0  0  0  0  0  0  0  0  0  0  0  0
   -0.1259  -14.6471    0.0000 C   0  0  0  0  0  0  0  0  0  0  0  0
   -0.4761  -16.1056    0.0000 C   0  0  0  0  0  0  0  0  0  0  0  0
    0.6120  -17.1381    0.0000 O   0  0  0  0  0  0  0  0  0  0  0  0
    2.0502  -16.7121    0.0000 C   0  0  0  0  0  0  0  0  0  0  0  0
    2.4004  -15.2536    0.0000 C   0  0  0  0  0  0  0  0  0  0  0  0
    0.6883  -11.6219    0.0000 N   0  0  0  0  0  0  0  0  0  0  0  0
  1  2  2  0
  2  3  1  0
  3  4  1  0
  4  5  1  0
  5  6  2  0
  5  7  1  0
  7  8  2  0
  8  9  1  0
  9 10  2  0
 10 11  1  0
 10 12  1  0
 12 13  1  0
 13 14  1  0
 14 15  1  0
 15 16  1  0
 16 17  1  0
  2 18  1  0
 18 19  2  0
 19 20  1  0
 20 21  1  0
 21 22  1  0
 22 23  1  0
 23 24  1  0
 24 25  1  0
 25 26  1  0
 26 27  1  0
 21 28  2  0
 11  7  1  0
 28 18  1  0
 17  9  1  0
 27 22  1  0
M  END
>  <Compound_ID>  (48) 
C12800723

>  <Active>  (48) 
0

>  <Smiles>  (48) 
O=C(NNC(=O)c1cc2c(s1)CCCCCC2)c1csc(N2CCOCC2)n1

>  <canonical_smi>  (48) 
O=C(NNC(=O)c1cc2c(s1)CCCCCC2)c1csc(N2CCOCC2)n1

>  <Set>  (48) 
G2 inactive

>  <Set_type>  (48) 
Train

>  <MW>  (48) 
420.56

>  <HBD>  (48) 
2

>  <HBA>  (48) 
5

>  <NRB>  (48) 
3

>  <NR>  (48) 
4

>  <NAR>  (48) 
2

>  <PSA>  (48) 
83.56

>  <Standard Type>  (48) 
nan

>  <Standard Relation>  (48) 
nan

>  <Standard Units>  (48) 
nan

>  <Standard Value>  (48) 
nan

>  <Assay ChEMBL ID>  (48) 
nan

>  <Assay Description>  (48) 
nan

>  <BAO Label>  (48) 
nan

$$$$

     RDKit          2D

 30 32  0  0  0  0  0  0  0  0999 V2000
   -0.0000   -9.6073    0.0000 C   0  0  0  0  0  0  0  0  0  0  0  0
   -0.0000   -8.1073    0.0000 C   0  0  0  0  0  0  0  0  0  0  0  0
    0.9460   -7.8361    0.0000 C   0  0  0  0  0  0  0  0  0  0  0  0
   -1.2990   -7.3573    0.0000 C   0  0  0  0  0  0  0  0  0  0  0  0
   -1.2990   -5.8573    0.0000 N   0  0  0  0  0  0  0  0  0  0  0  0
   -0.0000   -5.1073    0.0000 C   0  0  0  0  0  0  0  0  0  0  0  0
    1.2990   -5.8573    0.0000 C   0  0  0  0  0  0  0  0  0  0  0  0
    1.4558   -7.3491    0.0000 C   0  0  0  0  0  0  0  0  0  0  0  0
    2.9231   -7.6610    0.0000 N   0  0  0  0  0  0  0  0  0  0  0  0
    3.6731   -8.9600    0.0000 C   0  0  0  0  0  0  0  0  0  0  0  0
    5.1731   -8.9600    0.0000 C   0  0  0  0  0  0  0  0  0  0  0  0
    5.9231   -7.6610    0.0000 C   0  0  0  0  0  0  0  0  0  0  0  0
    5.1731   -6.3619    0.0000 C   0  0  0  0  0  0  0  0  0  0  0  0
    3.6731   -6.3619    0.0000 C   0  0  0  0  0  0  0  0  0  0  0  0
    2.6694   -5.2472    0.0000 C   0  0  0  0  0  0  0  0  0  0  0  0
    2.9812   -3.7800    0.0000 C   0  0  0  0  0  0  0  0  0  0  0  0
    3.2931   -2.3128    0.0000 N   0  0  0  0  0  0  0  0  0  0  0  0
   -2.5981   -5.1073    0.0000 C   0  0  0  0  0  0  0  0  0  0  0  0
   -3.8971   -5.8573    0.0000 C   0  0  0  0  0  0  0  0  0  0  0  0
   -3.8971   -7.3573    0.0000 N   0  0  0  0  0  0  0  0  0  0  0  0
   -5.1962   -5.1073    0.0000 N   0  0  0  0  0  0  0  0  0  0  0  0
   -6.4952   -5.8573    0.0000 C   0  0  0  0  0  0  0  0  0  0  0  0
   -7.7942   -5.1073    0.0000 C   0  0  0  0  0  0  0  0  0  0  0  0
   -9.0933   -5.8573    0.0000 C   0  0  0  0  0  0  0  0  0  0  0  0
   -7.7942   -3.6073    0.0000 C   0  0  0  0  0  0  0  0  0  0  0  0
   -5.1962   -3.6073    0.0000 C   0  0  0  0  0  0  0  0  0  0  0  0
   -6.4952   -2.8573    0.0000 O   0  0  0  0  0  0  0  0  0  0  0  0
   -3.8971   -2.8573    0.0000 N   0  0  0  0  0  0  0  0  0  0  0  0
   -2.5981   -3.6073    0.0000 C   0  0  0  0  0  0  0  0  0  0  0  0
   -1.2990   -2.8573    0.0000 O   0  0  0  0  0  0  0  0  0  0  0  0
  1  2  1  0
  2  3  1  0
  2  4  1  0
  4  5  1  0
  5  6  1  0
  6  7  1  0
  7  8  2  0
  8  9  1  0
  9 10  1  0
 10 11  2  0
 11 12  1  0
 12 13  2  0
 13 14  1  0
 14 15  2  0
 15 16  1  0
 16 17  3  0
  5 18  1  0
 18 19  2  0
 19 20  1  0
 19 21  1  0
 21 22  1  0
 22 23  1  0
 23 24  1  0
 23 25  1  0
 21 26  1  0
 26 27  2  0
 26 28  1  0
 28 29  1  0
 29 30  2  0
 15  7  1  0
 29 18  1  0
 14  9  1  0
M  END
>  <Compound_ID>  (49) 
C32825260

>  <Active>  (49) 
0

>  <Smiles>  (49) 
CC(C)CN(Cc1cn2ccccc2c1C#N)c1c(N)n(CC(C)C)c(=O)[nH]c1=O

>  <canonical_smi>  (49) 
CC(C)CN(Cc1cn2ccccc2c1C#N)c1c(N)n(CC(C)C)c(=O)[nH]c1=O

>  <Set>  (49) 
G2 inactive

>  <Set_type>  (49) 
Train

>  <MW>  (49) 
408.51

>  <HBD>  (49) 
2

>  <HBA>  (49) 
5

>  <NRB>  (49) 
7

>  <NR>  (49) 
3

>  <NAR>  (49) 
3

>  <PSA>  (49) 
112.32

>  <Standard Type>  (49) 
nan

>  <Standard Relation>  (49) 
nan

>  <Standard Units>  (49) 
nan

>  <Standard Value>  (49) 
nan

>  <Assay ChEMBL ID>  (49) 
nan

>  <Assay Description>  (49) 
nan

>  <BAO Label>  (49) 
nan

$$$$

     RDKit          2D

 21 22  0  0  0  0  0  0  0  0999 V2000
   -4.0384    4.5977    0.0000 C   0  0  0  0  0  0  0  0  0  0  0  0
   -3.3342    3.2733    0.0000 C   0  0  0  0  0  0  0  0  0  0  0  0
   -1.8351    3.2209    0.0000 C   0  0  0  0  0  0  0  0  0  0  0  0
   -2.0439    4.7063    0.0000 C   0  0  0  0  0  0  0  0  0  0  0  0
   -0.8619    5.6298    0.0000 C   0  0  0  0  0  0  0  0  0  0  0  0
   -0.4086    3.6844    0.0000 C   0  0  0  0  0  0  0  0  0  0  0  0
   -0.0967    5.1517    0.0000 O   0  0  0  0  0  0  0  0  0  0  0  0
    0.7062    2.6807    0.0000 N   0  0  0  0  0  0  0  0  0  0  0  0
    2.1328    3.1443    0.0000 C   0  0  0  0  0  0  0  0  0  0  0  0
    2.4446    4.6115    0.0000 C   0  0  0  0  0  0  0  0  0  0  0  0
    3.2475    2.1406    0.0000 O   0  0  0  0  0  0  0  0  0  0  0  0
    0.3943    1.2135    0.0000 C   0  0  0  0  0  0  0  0  0  0  0  0
    1.8615    1.5254    0.0000 C   0  0  0  0  0  0  0  0  0  0  0  0
    1.2760    0.0000    0.0000 C   0  0  0  0  0  0  0  0  0  0  0  0
    2.7760    0.0000    0.0000 O   0  0  0  0  0  0  0  0  0  0  0  0
    0.3943   -1.2135    0.0000 N   0  0  0  0  0  0  0  0  0  0  0  0
   -1.0323   -0.7500    0.0000 C   0  0  0  0  0  0  0  0  0  0  0  0
   -2.2458   -1.6317    0.0000 O   0  0  0  0  0  0  0  0  0  0  0  0
   -1.0323    0.7500    0.0000 N   0  0  0  0  0  0  0  0  0  0  0  0
   -2.1470    1.7537    0.0000 C   0  0  0  0  0  0  0  0  0  0  0  0
   -3.5736    1.2902    0.0000 O   0  0  0  0  0  0  0  0  0  0  0  0
  1  2  1  0
  2  3  1  0
  3  4  1  0
  4  5  1  0
  3  6  1  0
  6  7  2  0
  6  8  1  0
  8  9  1  0
  9 10  1  0
  9 11  2  0
  8 12  1  0
 12 13  1  6
 12 14  1  0
 14 15  2  0
 14 16  1  0
 16 17  1  0
 17 18  2  0
 17 19  1  0
 19 20  1  0
 20 21  2  0
 20  3  1  0
 19 12  1  0
M  END
>  <Compound_ID>  (50) 
C05519669

>  <Active>  (50) 
0

>  <Smiles>  (50) 
CCC1(CC)C(=O)N(C(C)=O)[C@@]2(C)C(=O)NC(=O)N2C1=O

>  <canonical_smi>  (50) 
CCC1(CC)C(=O)N(C(C)=O)[C@@]2(C)C(=O)NC(=O)N2C1=O

>  <Set>  (50) 
G2 inactive

>  <Set_type>  (50) 
Train

>  <MW>  (50) 
295.3

>  <HBD>  (50) 
1

>  <HBA>  (50) 
5

>  <NRB>  (50) 
2

>  <NR>  (50) 
2

>  <NAR>  (50) 
0

>  <PSA>  (50) 
103.86

>  <Standard Type>  (50) 
nan

>  <Standard Relation>  (50) 
nan

>  <Standard Units>  (50) 
nan

>  <Standard Value>  (50) 
nan

>  <Assay ChEMBL ID>  (50) 
nan

>  <Assay Description>  (50) 
nan

>  <BAO Label>  (50) 
nan

$$$$

     RDKit          2D

 20 22  0  0  0  0  0  0  0  0999 V2000
    0.3943    6.4937    0.0000 C   0  0  0  0  0  0  0  0  0  0  0  0
    0.8578    5.0672    0.0000 C   0  0  0  0  0  0  0  0  0  0  0  0
   -0.0239    3.8536    0.0000 C   0  0  0  0  0  0  0  0  0  0  0  0
    0.8578    2.6401    0.0000 C   0  0  0  0  0  0  0  0  0  0  0  0
    0.3943    1.2135    0.0000 N   0  0  0  0  0  0  0  0  0  0  0  0
    1.2760    0.0000    0.0000 C   0  0  0  0  0  0  0  0  0  0  0  0
    0.3943   -1.2135    0.0000 N   0  0  0  0  0  0  0  0  0  0  0  0
   -1.0323   -0.7500    0.0000 C   0  0  0  0  0  0  0  0  0  0  0  0
   -1.0323    0.7500    0.0000 C   0  0  0  0  0  0  0  0  0  0  0  0
   -2.3313    1.5000    0.0000 C   0  0  0  0  0  0  0  0  0  0  0  0
   -2.3313    3.0000    0.0000 O   0  0  0  0  0  0  0  0  0  0  0  0
   -3.6304    0.7500    0.0000 N   0  0  0  0  0  0  0  0  0  0  0  0
   -4.9294    1.5000    0.0000 C   0  0  0  0  0  0  0  0  0  0  0  0
   -3.6304   -0.7500    0.0000 C   0  0  0  0  0  0  0  0  0  0  0  0
   -4.9294   -1.5000    0.0000 O   0  0  0  0  0  0  0  0  0  0  0  0
   -2.3313   -1.5000    0.0000 N   0  0  0  0  0  0  0  0  0  0  0  0
   -2.3313   -3.0000    0.0000 C   0  0  0  0  0  0  0  0  0  0  0  0
    2.2844    3.1036    0.0000 C   0  0  0  0  0  0  0  0  0  0  0  0
    3.4979    2.2220    0.0000 O   0  0  0  0  0  0  0  0  0  0  0  0
    2.2844    4.6036    0.0000 O   0  0  0  0  0  0  0  0  0  0  0  0
  2  1  1  6
  2  3  1  0
  3  4  1  0
  4  5  1  1
  5  6  1  0
  6  7  2  0
  7  8  1  0
  8  9  2  0
  9 10  1  0
 10 11  2  0
 10 12  1  0
 12 13  1  0
 12 14  1  0
 14 15  2  0
 14 16  1  0
 16 17  1  0
  4 18  1  0
 18 19  2  0
 18 20  1  0
 20  2  1  0
  9  5  1  0
 16  8  1  0
M  END
>  <Compound_ID>  (51) 
C12559214

>  <Active>  (51) 
0

>  <Smiles>  (51) 
C[C@H]1C[C@H](n2cnc3c2c(=O)n(C)c(=O)n3C)C(=O)O1

>  <canonical_smi>  (51) 
C[C@H]1C[C@H](n2cnc3c2c(=O)n(C)c(=O)n3C)C(=O)O1

>  <Set>  (51) 
G2 inactive

>  <Set_type>  (51) 
Train

>  <MW>  (51) 
278.27

>  <HBD>  (51) 
0

>  <HBA>  (51) 
5

>  <NRB>  (51) 
1

>  <NR>  (51) 
3

>  <NAR>  (51) 
2

>  <PSA>  (51) 
88.12

>  <Standard Type>  (51) 
nan

>  <Standard Relation>  (51) 
nan

>  <Standard Units>  (51) 
nan

>  <Standard Value>  (51) 
nan

>  <Assay ChEMBL ID>  (51) 
nan

>  <Assay Description>  (51) 
nan

>  <BAO Label>  (51) 
nan

$$$$

     RDKit          2D

 18 19  0  0  0  0  0  0  0  0999 V2000
   -4.2164   -2.1363    0.0000 C   0  0  0  0  0  0  0  0  0  0  0  0
   -3.2127   -3.2511    0.0000 N   0  0  0  0  0  0  0  0  0  0  0  0
   -3.6762   -4.6776    0.0000 C   0  0  0  0  0  0  0  0  0  0  0  0
   -1.7455   -2.9392    0.0000 C   0  0  0  0  0  0  0  0  0  0  0  0
   -1.2820   -1.5126    0.0000 O   0  0  0  0  0  0  0  0  0  0  0  0
   -0.7418   -4.0539    0.0000 C   0  0  0  0  0  0  0  0  0  0  0  0
   -1.0537   -5.5211    0.0000 C   0  0  0  0  0  0  0  0  0  0  0  0
    0.2454   -6.2711    0.0000 S   0  0  0  0  0  0  0  0  0  0  0  0
    1.3601   -5.2674    0.0000 C   0  0  0  0  0  0  0  0  0  0  0  0
    0.7500   -3.8971    0.0000 N   0  0  0  0  0  0  0  0  0  0  0  0
    1.5000   -2.5981    0.0000 C   0  0  0  0  0  0  0  0  0  0  0  0
    0.7500   -1.2990    0.0000 O   0  0  0  0  0  0  0  0  0  0  0  0
    3.0000   -2.5981    0.0000 C   0  0  0  0  0  0  0  0  0  0  0  0
    3.7500   -3.8971    0.0000 C   0  0  0  0  0  0  0  0  0  0  0  0
    5.2500   -3.8971    0.0000 O   0  0  0  0  0  0  0  0  0  0  0  0
    6.0000   -2.5981    0.0000 C   0  0  0  0  0  0  0  0  0  0  0  0
    5.2500   -1.2990    0.0000 C   0  0  0  0  0  0  0  0  0  0  0  0
    3.7500   -1.2990    0.0000 O   0  0  0  0  0  0  0  0  0  0  0  0
  1  2  1  0
  2  3  1  0
  2  4  1  0
  4  5  2  0
  6  4  1  1
  6  7  1  0
  7  8  1  0
  8  9  1  0
  9 10  1  0
 10 11  1  0
 11 12  2  0
 13 11  1  6
 13 14  1  0
 14 15  1  0
 15 16  1  0
 16 17  1  0
 17 18  1  0
 10  6  1  0
 18 13  1  0
M  END
>  <Compound_ID>  (52) 
C66649515

>  <Active>  (52) 
0

>  <Smiles>  (52) 
CN(C)C(=O)[C@@H]1CSCN1C(=O)[C@H]1COCCO1

>  <canonical_smi>  (52) 
CN(C)C(=O)[C@@H]1CSCN1C(=O)[C@H]1COCCO1

>  <Set>  (52) 
G2 inactive

>  <Set_type>  (52) 
Train

>  <MW>  (52) 
274.34

>  <HBD>  (52) 
0

>  <HBA>  (52) 
5

>  <NRB>  (52) 
2

>  <NR>  (52) 
2

>  <NAR>  (52) 
0

>  <PSA>  (52) 
59.08

>  <Standard Type>  (52) 
nan

>  <Standard Relation>  (52) 
nan

>  <Standard Units>  (52) 
nan

>  <Standard Value>  (52) 
nan

>  <Assay ChEMBL ID>  (52) 
nan

>  <Assay Description>  (52) 
nan

>  <BAO Label>  (52) 
nan

$$$$

     RDKit          2D

 24 27  0  0  0  0  0  0  0  0999 V2000
   -3.7548   -2.1855    0.0000 C   0  0  0  0  0  0  0  0  0  0  0  0
   -2.6401   -3.1891    0.0000 C   0  0  0  0  0  0  0  0  0  0  0  0
   -1.2135   -2.7256    0.0000 N   0  0  0  0  0  0  0  0  0  0  0  0
   -0.0000   -3.6073    0.0000 C   0  0  0  0  0  0  0  0  0  0  0  0
   -0.0000   -5.1073    0.0000 C   0  0  0  0  0  0  0  0  0  0  0  0
   -1.2990   -5.8573    0.0000 N   0  0  0  0  0  0  0  0  0  0  0  0
   -1.2990   -7.3573    0.0000 C   0  0  0  0  0  0  0  0  0  0  0  0
   -2.5126   -8.2390    0.0000 N   0  0  0  0  0  0  0  0  0  0  0  0
   -2.0490   -9.6656    0.0000 C   0  0  0  0  0  0  0  0  0  0  0  0
   -2.7990  -10.9646    0.0000 C   0  0  0  0  0  0  0  0  0  0  0  0
   -2.0490  -12.2636    0.0000 C   0  0  0  0  0  0  0  0  0  0  0  0
   -0.5490  -12.2636    0.0000 C   0  0  0  0  0  0  0  0  0  0  0  0
    0.2010  -10.9646    0.0000 C   0  0  0  0  0  0  0  0  0  0  0  0
   -0.5490   -9.6656    0.0000 C   0  0  0  0  0  0  0  0  0  0  0  0
   -0.0855   -8.2390    0.0000 N   0  0  0  0  0  0  0  0  0  0  0  0
    1.3411   -7.7755    0.0000 C   0  0  0  0  0  0  0  0  0  0  0  0
    2.4558   -8.7791    0.0000 C   0  0  0  0  0  0  0  0  0  0  0  0
    1.2135   -2.7256    0.0000 N   0  0  0  0  0  0  0  0  0  0  0  0
    0.7500   -1.2990    0.0000 C   0  0  0  0  0  0  0  0  0  0  0  0
    1.5000    0.0000    0.0000 C   0  0  0  0  0  0  0  0  0  0  0  0
    0.7500    1.2990    0.0000 C   0  0  0  0  0  0  0  0  0  0  0  0
   -0.7500    1.2990    0.0000 C   0  0  0  0  0  0  0  0  0  0  0  0
   -1.5000    0.0000    0.0000 C   0  0  0  0  0  0  0  0  0  0  0  0
   -0.7500   -1.2990    0.0000 C   0  0  0  0  0  0  0  0  0  0  0  0
  1  2  1  0
  2  3  1  0
  3  4  1  0
  4  5  1  0
  5  6  2  0
  6  7  1  0
  7  8  2  0
  8  9  1  0
  9 10  2  0
 10 11  1  0
 11 12  2  0
 12 13  1  0
 13 14  2  0
 14 15  1  0
 15 16  1  0
 16 17  1  0
  4 18  2  0
 18 19  1  0
 19 20  2  0
 20 21  1  0
 21 22  2  0
 22 23  1  0
 23 24  2  0
 24  3  1  0
 15  7  1  0
 24 19  1  0
 14  9  1  0
M  END
>  <Compound_ID>  (53) 
C13756738

>  <Active>  (53) 
0

>  <Smiles>  (53) 
CCn1c(/C=N/c2nc3ccccc3n2CC)nc2ccccc21

>  <canonical_smi>  (53) 
CCn1c(/C=N/c2nc3ccccc3n2CC)nc2ccccc21

>  <Set>  (53) 
G2 inactive

>  <Set_type>  (53) 
Train

>  <MW>  (53) 
317.4

>  <HBD>  (53) 
0

>  <HBA>  (53) 
2

>  <NRB>  (53) 
4

>  <NR>  (53) 
4

>  <NAR>  (53) 
4

>  <PSA>  (53) 
48.0

>  <Standard Type>  (53) 
nan

>  <Standard Relation>  (53) 
nan

>  <Standard Units>  (53) 
nan

>  <Standard Value>  (53) 
nan

>  <Assay ChEMBL ID>  (53) 
nan

>  <Assay Description>  (53) 
nan

>  <BAO Label>  (53) 
nan

$$$$

     RDKit          2D

 20 22  0  0  0  0  0  0  0  0999 V2000
    3.0000    0.0000    0.0000 C   0  0  0  0  0  0  0  0  0  0  0  0
    1.5000    0.0000    0.0000 C   0  0  0  0  0  0  0  0  0  0  0  0
    0.7500   -1.2990    0.0000 C   0  0  0  0  0  0  0  0  0  0  0  0
   -0.7500   -1.2990    0.0000 C   0  0  0  0  0  0  0  0  0  0  0  0
   -1.5000    0.0000    0.0000 C   0  0  0  0  0  0  0  0  0  0  0  0
   -3.0000    0.0000    0.0000 O   0  0  0  0  0  0  0  0  0  0  0  0
   -3.7500    1.2990    0.0000 C   0  0  0  0  0  0  0  0  0  0  0  0
   -3.0000    2.5981    0.0000 N   0  0  0  0  0  0  0  0  0  0  0  0
   -3.7500    3.8971    0.0000 C   0  0  0  0  0  0  0  0  0  0  0  0
   -3.0000    5.1962    0.0000 Cl  0  0  0  0  0  0  0  0  0  0  0  0
   -5.2500    3.8971    0.0000 N   0  0  0  0  0  0  0  0  0  0  0  0
   -6.0000    2.5981    0.0000 C   0  0  0  0  0  0  0  0  0  0  0  0
   -7.5000    2.5981    0.0000 N   0  0  0  0  0  0  0  0  0  0  0  0
   -8.3817    1.3846    0.0000 C   0  0  0  0  0  0  0  0  0  0  0  0
   -9.8083    1.8481    0.0000 C   0  0  0  0  0  0  0  0  0  0  0  0
   -9.8083    3.3481    0.0000 C   0  0  0  0  0  0  0  0  0  0  0  0
   -8.3817    3.8116    0.0000 C   0  0  0  0  0  0  0  0  0  0  0  0
   -5.2500    1.2990    0.0000 N   0  0  0  0  0  0  0  0  0  0  0  0
   -0.7500    1.2990    0.0000 C   0  0  0  0  0  0  0  0  0  0  0  0
    0.7500    1.2990    0.0000 C   0  0  0  0  0  0  0  0  0  0  0  0
  1  2  1  0
  2  3  1  0
  3  4  1  0
  4  5  1  0
  5  6  1  0
  6  7  1  0
  7  8  2  0
  8  9  1  0
  9 10  1  0
  9 11  2  0
 11 12  1  0
 12 13  1  0
 13 14  1  0
 14 15  1  0
 15 16  1  0
 16 17  1  0
 12 18  2  0
  5 19  1  0
 19 20  1  0
 20  2  1  0
 18  7  1  0
 17 13  1  0
M  END
>  <Compound_ID>  (54) 
C61519597

>  <Active>  (54) 
0

>  <Smiles>  (54) 
CC1CCC(Oc2nc(Cl)nc(N3CCCC3)n2)CC1

>  <canonical_smi>  (54) 
CC1CCC(Oc2nc(Cl)nc(N3CCCC3)n2)CC1

>  <Set>  (54) 
G2 inactive

>  <Set_type>  (54) 
Train

>  <MW>  (54) 
296.8

>  <HBD>  (54) 
0

>  <HBA>  (54) 
5

>  <NRB>  (54) 
3

>  <NR>  (54) 
3

>  <NAR>  (54) 
1

>  <PSA>  (54) 
51.14

>  <Standard Type>  (54) 
nan

>  <Standard Relation>  (54) 
nan

>  <Standard Units>  (54) 
nan

>  <Standard Value>  (54) 
nan

>  <Assay ChEMBL ID>  (54) 
nan

>  <Assay Description>  (54) 
nan

>  <BAO Label>  (54) 
nan

$$$$

     RDKit          2D

 25 28  0  0  0  0  0  0  0  0999 V2000
    3.0000    0.0000    0.0000 C   0  0  0  0  0  0  0  0  0  0  0  0
    1.5000    0.0000    0.0000 C   0  0  0  0  0  0  0  0  0  0  0  0
    0.7500   -1.2990    0.0000 C   0  0  0  0  0  0  0  0  0  0  0  0
   -0.7500   -1.2990    0.0000 C   0  0  0  0  0  0  0  0  0  0  0  0
   -1.5000    0.0000    0.0000 C   0  0  0  0  0  0  0  0  0  0  0  0
   -0.7500    1.2990    0.0000 C   0  0  0  0  0  0  0  0  0  0  0  0
   -2.2500    1.2990    0.0000 C   0  0  0  0  0  0  0  0  0  0  0  0
   -1.5000    2.5981    0.0000 C   0  0  0  0  0  0  0  0  0  0  0  0
   -0.7500    3.8971    0.0000 C   0  0  0  0  0  0  0  0  0  0  0  0
   -1.2135    5.3237    0.0000 O   0  0  0  0  0  0  0  0  0  0  0  0
   -0.0000    6.2054    0.0000 C   0  0  0  0  0  0  0  0  0  0  0  0
   -0.0000    7.7054    0.0000 O   0  0  0  0  0  0  0  0  0  0  0  0
    1.2135    5.3237    0.0000 C   0  0  0  0  0  0  0  0  0  0  0  0
    2.6401    5.7872    0.0000 C   0  0  0  0  0  0  0  0  0  0  0  0
    2.9520    7.2544    0.0000 N   0  0  0  0  0  4  0  0  0  0  0  0
    1.8373    8.2581    0.0000 C   0  0  0  0  0  0  0  0  0  0  0  0
    2.1491    9.7254    0.0000 C   0  0  0  0  0  0  0  0  0  0  0  0
    3.5757   10.1889    0.0000 C   0  0  0  0  0  0  0  0  0  0  0  0
    4.6904    9.1852    0.0000 C   0  0  0  0  0  0  0  0  0  0  0  0
    4.3786    7.7180    0.0000 C   0  0  0  0  0  0  0  0  0  0  0  0
    5.4933    6.7143    0.0000 C   0  0  0  0  0  0  0  0  0  0  0  0
    6.9199    7.1778    0.0000 C   0  0  0  0  0  0  0  0  0  0  0  0
    0.7500    3.8971    0.0000 C   0  0  0  0  0  0  0  0  0  0  0  0
    1.5000    2.5981    0.0000 C   0  0  0  0  0  0  0  0  0  0  0  0
    0.7500    1.2990    0.0000 C   0  0  0  0  0  0  0  0  0  0  0  0
  1  2  2  0
  2  3  1  0
  3  4  1  0
  4  5  1  0
  5  6  1  0
  6  7  1  1
  6  8  1  0
  9  8  1  1
  9 10  1  0
 10 11  1  0
 11 12  2  0
 11 13  1  0
 13 14  1  6
 14 15  1  0
 15 16  1  0
 16 17  1  0
 17 18  1  0
 18 19  1  0
 19 20  1  0
 20 21  1  1
 21 22  1  0
 13 23  1  0
 23 24  1  1
 25 24  1  6
 25  2  1  0
 25  6  1  0
 23  9  1  0
 20 15  1  0
M  CHG  1  15   1
M  END
>  <Compound_ID>  (55) 
C04028570

>  <Active>  (55) 
0

>  <Smiles>  (55) 
C=C1CCC[C@]2(C)C[C@H]3OC(=O)[C@H](C[NH+]4CCCC[C@H]4CC)[C@H]3C[C@H]12

>  <canonical_smi>  (55) 
C=C1CCC[C@]2(C)C[C@H]3OC(=O)[C@H](C[NH+]4CCCC[C@H]4CC)[C@H]3C[C@H]12

>  <Set>  (55) 
G2 inactive

>  <Set_type>  (55) 
Train

>  <MW>  (55) 
346.54

>  <HBD>  (55) 
1

>  <HBA>  (55) 
2

>  <NRB>  (55) 
3

>  <NR>  (55) 
4

>  <NAR>  (55) 
0

>  <PSA>  (55) 
30.74

>  <Standard Type>  (55) 
nan

>  <Standard Relation>  (55) 
nan

>  <Standard Units>  (55) 
nan

>  <Standard Value>  (55) 
nan

>  <Assay ChEMBL ID>  (55) 
nan

>  <Assay Description>  (55) 
nan

>  <BAO Label>  (55) 
nan

$$$$

     RDKit          2D

 23 26  0  0  0  0  0  0  0  0999 V2000
   -3.3116   -2.7861    0.0000 C   0  0  0  0  0  0  0  0  0  0  0  0
   -2.8480   -4.2127    0.0000 C   0  0  0  0  0  0  0  0  0  0  0  0
   -3.7297   -5.4262    0.0000 O   0  0  0  0  0  0  0  0  0  0  0  0
   -2.8480   -6.6397    0.0000 C   0  0  0  0  0  0  0  0  0  0  0  0
   -3.3116   -8.0663    0.0000 C   0  0  0  0  0  0  0  0  0  0  0  0
   -2.4299   -9.2798    0.0000 C   0  0  0  0  0  0  0  0  0  0  0  0
   -3.3116  -10.4934    0.0000 C   0  0  0  0  0  0  0  0  0  0  0  0
   -4.7381  -10.0298    0.0000 S   0  0  0  0  0  0  0  0  0  0  0  0
   -4.7381   -8.5298    0.0000 C   0  0  0  0  0  0  0  0  0  0  0  0
   -1.4215   -6.1762    0.0000 N   0  0  0  0  0  0  0  0  0  0  0  0
   -1.4215   -4.6762    0.0000 C   0  0  0  0  0  0  0  0  0  0  0  0
   -0.2079   -3.7945    0.0000 C   0  0  0  0  0  0  0  0  0  0  0  0
   -0.3647   -2.3027    0.0000 N   0  0  0  0  0  4  0  0  0  0  0  0
   -1.6638   -1.5527    0.0000 C   0  0  0  0  0  0  0  0  0  0  0  0
   -1.5000    0.0000    0.0000 C   0  0  0  0  0  0  0  0  0  0  0  0
   -3.0000    0.0000    0.0000 C   0  0  0  0  0  0  0  0  0  0  0  0
   -0.7500   -1.2990    0.0000 C   0  0  0  0  0  0  0  0  0  0  0  0
    0.7500   -1.2990    0.0000 C   0  0  0  0  0  0  0  0  0  0  0  0
    1.5000    0.0000    0.0000 C   0  0  0  0  0  0  0  0  0  0  0  0
    0.7500    1.2990    0.0000 C   0  0  0  0  0  0  0  0  0  0  0  0
    0.4895    2.7762    0.0000 C   0  0  0  0  0  0  0  0  0  0  0  0
    2.1595    1.8121    0.0000 C   0  0  0  0  0  0  0  0  0  0  0  0
   -0.7500    1.2990    0.0000 C   0  0  0  0  0  0  0  0  0  0  0  0
  1  2  1  0
  2  3  1  0
  3  4  1  0
  4  5  1  0
  5  6  1  0
  6  7  2  0
  7  8  1  0
  8  9  1  0
  4 10  2  0
 10 11  1  0
 11 12  1  0
 12 13  1  0
 13 14  1  0
 14 15  1  0
 15 16  1  6
 15 17  1  0
 17 18  1  0
 18 19  1  1
 19 20  1  0
 20 21  1  0
 20 22  1  0
 20 23  1  0
 11  2  2  0
 18 13  1  0
  9  5  2  0
 23 15  1  0
M  CHG  1  13   1
M  END
>  <Compound_ID>  (56) 
C15074407

>  <Active>  (56) 
0

>  <Smiles>  (56) 
Cc1oc(-c2ccsc2)nc1C[NH+]1C[C@]2(C)C[C@H]1CC(C)(C)C2

>  <canonical_smi>  (56) 
Cc1oc(-c2ccsc2)nc1C[NH+]1C[C@]2(C)C[C@H]1CC(C)(C)C2

>  <Set>  (56) 
G2 inactive

>  <Set_type>  (56) 
Train

>  <MW>  (56) 
331.51

>  <HBD>  (56) 
1

>  <HBA>  (56) 
2

>  <NRB>  (56) 
3

>  <NR>  (56) 
4

>  <NAR>  (56) 
2

>  <PSA>  (56) 
30.47

>  <Standard Type>  (56) 
nan

>  <Standard Relation>  (56) 
nan

>  <Standard Units>  (56) 
nan

>  <Standard Value>  (56) 
nan

>  <Assay ChEMBL ID>  (56) 
nan

>  <Assay Description>  (56) 
nan

>  <BAO Label>  (56) 
nan

$$$$

     RDKit          2D

 23 26  0  0  0  0  0  0  0  0999 V2000
   -1.5000  -10.3923    0.0000 C   0  0  0  0  0  0  0  0  0  0  0  0
   -3.0000  -10.3923    0.0000 C   0  0  0  0  0  0  0  0  0  0  0  0
   -3.7500  -11.6913    0.0000 C   0  0  0  0  0  0  0  0  0  0  0  0
   -5.2500  -11.6913    0.0000 C   0  0  0  0  0  0  0  0  0  0  0  0
   -6.0000  -10.3923    0.0000 C   0  0  0  0  0  0  0  0  0  0  0  0
   -5.2500   -9.0933    0.0000 C   0  0  0  0  0  0  0  0  0  0  0  0
   -3.7500   -9.0933    0.0000 C   0  0  0  0  0  0  0  0  0  0  0  0
   -3.0000   -7.7942    0.0000 N   0  0  0  0  0  0  0  0  0  0  0  0
   -1.5000   -7.7942    0.0000 C   0  0  0  0  0  0  0  0  0  0  0  0
   -0.7500   -6.4952    0.0000 C   0  0  0  0  0  0  0  0  0  0  0  0
   -1.5000   -5.1962    0.0000 N   0  0  0  0  0  4  0  0  0  0  0  0
   -0.7500   -3.8971    0.0000 C   0  0  0  0  0  0  0  0  0  0  0  0
    0.7500   -3.8971    0.0000 C   0  0  0  0  0  0  0  0  0  0  0  0
    1.5000   -2.5981    0.0000 C   0  0  0  0  0  0  0  0  0  0  0  0
    0.7500   -1.2990    0.0000 C   0  0  0  0  0  0  0  0  0  0  0  0
    1.5000    0.0000    0.0000 C   0  0  0  0  0  0  0  0  0  0  0  0
    0.7500    1.2990    0.0000 C   0  0  0  0  0  0  0  0  0  0  0  0
   -0.7500    1.2990    0.0000 C   0  0  0  0  0  0  0  0  0  0  0  0
   -1.5000    0.0000    0.0000 C   0  0  0  0  0  0  0  0  0  0  0  0
   -0.7500   -1.2990    0.0000 C   0  0  0  0  0  0  0  0  0  0  0  0
   -1.5000   -2.5981    0.0000 C   0  0  0  0  0  0  0  0  0  0  0  0
   -3.0000   -5.1962    0.0000 C   0  0  0  0  0  0  0  0  0  0  0  0
   -3.7500   -6.4952    0.0000 C   0  0  0  0  0  0  0  0  0  0  0  0
  1  2  1  0
  2  3  2  0
  3  4  1  0
  4  5  2  0
  5  6  1  0
  6  7  2  0
  7  8  1  0
  8  9  1  0
  9 10  1  0
 10 11  1  0
 12 11  1  6
 12 13  1  0
 13 14  1  0
 14 15  1  0
 15 16  2  0
 16 17  1  0
 17 18  2  0
 18 19  1  0
 19 20  2  0
 20 21  1  0
 11 22  1  0
 22 23  1  0
  7  2  1  0
 23  8  1  0
 21 12  1  0
 20 15  1  0
M  CHG  1  11   1
M  END
>  <Compound_ID>  (57) 
C23282303

>  <Active>  (57) 
0

>  <Smiles>  (57) 
Cc1ccccc1N1CC[NH+]([C@H]2CCc3ccccc3C2)CC1

>  <canonical_smi>  (57) 
Cc1ccccc1N1CC[NH+]([C@H]2CCc3ccccc3C2)CC1

>  <Set>  (57) 
G2 inactive

>  <Set_type>  (57) 
Train

>  <MW>  (57) 
307.46

>  <HBD>  (57) 
1

>  <HBA>  (57) 
1

>  <NRB>  (57) 
2

>  <NR>  (57) 
4

>  <NAR>  (57) 
2

>  <PSA>  (57) 
7.68

>  <Standard Type>  (57) 
nan

>  <Standard Relation>  (57) 
nan

>  <Standard Units>  (57) 
nan

>  <Standard Value>  (57) 
nan

>  <Assay ChEMBL ID>  (57) 
nan

>  <Assay Description>  (57) 
nan

>  <BAO Label>  (57) 
nan

$$$$

     RDKit          2D

 35 39  0  0  0  0  0  0  0  0999 V2000
  -12.0031   -6.0049    0.0000 C   0  0  0  0  0  0  0  0  0  0  0  0
  -10.6327   -5.3948    0.0000 C   0  0  0  0  0  0  0  0  0  0  0  0
   -9.4192   -6.2765    0.0000 C   0  0  0  0  0  0  0  0  0  0  0  0
   -8.0489   -5.6664    0.0000 C   0  0  0  0  0  0  0  0  0  0  0  0
   -7.8921   -4.1746    0.0000 C   0  0  0  0  0  0  0  0  0  0  0  0
   -6.5218   -3.5645    0.0000 C   0  0  0  0  0  0  0  0  0  0  0  0
   -5.3083   -4.4462    0.0000 N   0  0  0  0  0  0  0  0  0  0  0  0
   -3.8817   -3.9826    0.0000 C   0  0  0  0  0  0  0  0  0  0  0  0
   -3.6499   -2.7899    0.0000 O   0  0  0  0  0  0  0  0  0  0  0  0
   -3.0000   -5.1962    0.0000 C   0  0  0  0  0  0  0  0  0  0  0  0
   -1.5000   -5.1962    0.0000 C   0  0  0  0  0  0  0  0  0  0  0  0
   -0.7500   -3.8971    0.0000 C   0  0  0  0  0  0  0  0  0  0  0  0
    0.7500   -3.8971    0.0000 C   0  0  0  0  0  0  0  0  0  0  0  0
    1.5000   -5.1962    0.0000 N   0  0  0  0  0  0  0  0  0  0  0  0
    0.7500   -6.4952    0.0000 C   0  0  0  0  0  0  0  0  0  0  0  0
    1.5000   -7.7942    0.0000 C   0  0  0  0  0  0  0  0  0  0  0  0
    3.0000   -7.7942    0.0000 C   0  0  0  0  0  0  0  0  0  0  0  0
    3.7500   -6.4952    0.0000 C   0  0  0  0  0  0  0  0  0  0  0  0
    3.0000   -5.1962    0.0000 C   0  0  0  0  0  0  0  0  0  0  0  0
    3.7500   -3.8971    0.0000 C   0  0  0  0  0  0  0  0  0  0  0  0
    1.5000   -2.5981    0.0000 N   0  0  0  0  0  0  0  0  0  0  0  0
    0.7500   -1.2990    0.0000 C   0  0  0  0  0  0  0  0  0  0  0  0
    1.5000    0.0000    0.0000 C   0  0  0  0  0  0  0  0  0  0  0  0
    3.0000    0.0000    0.0000 C   0  0  0  0  0  0  0  0  0  0  0  0
    0.7500    1.2990    0.0000 C   0  0  0  0  0  0  0  0  0  0  0  0
   -0.7500    1.2990    0.0000 C   0  0  0  0  0  0  0  0  0  0  0  0
   -1.5000    0.0000    0.0000 C   0  0  0  0  0  0  0  0  0  0  0  0
   -0.7500   -1.2990    0.0000 N   0  0  0  0  0  0  0  0  0  0  0  0
   -1.5000   -2.5981    0.0000 C   0  0  0  0  0  0  0  0  0  0  0  0
   -2.7059   -2.4500    0.0000 O   0  0  0  0  0  0  0  0  0  0  0  0
   -3.8817   -6.4097    0.0000 S   0  0  0  0  0  0  0  0  0  0  0  0
   -5.3083   -5.9462    0.0000 C   0  0  0  0  0  0  0  0  0  0  0  0
   -6.5218   -6.8278    0.0000 S   0  0  0  0  0  0  0  0  0  0  0  0
   -9.1056   -3.2929    0.0000 C   0  0  0  0  0  0  0  0  0  0  0  0
  -10.4760   -3.9030    0.0000 C   0  0  0  0  0  0  0  0  0  0  0  0
  1  2  1  0
  2  3  2  0
  3  4  1  0
  4  5  2  0
  5  6  1  0
  6  7  1  0
  7  8  1  0
  8  9  2  0
  8 10  1  0
 10 11  2  0
 11 12  1  0
 12 13  2  0
 13 14  1  0
 14 15  1  0
 15 16  1  0
 16 17  1  0
 17 18  1  0
 18 19  1  0
 19 20  1  6
 13 21  1  0
 21 22  2  0
 22 23  1  0
 23 24  1  0
 23 25  2  0
 25 26  1  0
 26 27  2  0
 27 28  1  0
 28 29  1  0
 29 30  2  0
 10 31  1  0
 31 32  1  0
 32 33  2  0
  5 34  1  0
 34 35  2  0
 35  2  1  0
 32  7  1  0
 29 12  1  0
 19 14  1  0
 28 22  1  0
M  END
>  <Compound_ID>  (58) 
C39729277

>  <Active>  (58) 
0

>  <Smiles>  (58) 
Cc1ccc(CN2C(=O)/C(=C\c3c(N4CCCC[C@H]4C)nc4c(C)cccn4c3=O)SC2=S)cc1

>  <canonical_smi>  (58) 
Cc1ccc(CN2C(=O)/C(=C\c3c(N4CCCC[C@H]4C)nc4c(C)cccn4c3=O)SC2=S)cc1

>  <Set>  (58) 
G2 inactive

>  <Set_type>  (58) 
Train

>  <MW>  (58) 
504.68

>  <HBD>  (58) 
0

>  <HBA>  (58) 
6

>  <NRB>  (58) 
4

>  <NR>  (58) 
5

>  <NAR>  (58) 
3

>  <PSA>  (58) 
57.92

>  <Standard Type>  (58) 
nan

>  <Standard Relation>  (58) 
nan

>  <Standard Units>  (58) 
nan

>  <Standard Value>  (58) 
nan

>  <Assay ChEMBL ID>  (58) 
nan

>  <Assay Description>  (58) 
nan

>  <BAO Label>  (58) 
nan

$$$$

     RDKit          2D

 31 34  0  0  0  0  0  0  0  0999 V2000
   12.5890    0.3290    0.0000 O   0  0  0  0  0  0  0  0  0  0  0  0
   11.5853   -0.7857    0.0000 C   0  0  0  0  0  0  0  0  0  0  0  0
   12.0488   -2.2123    0.0000 O   0  0  0  0  0  1  0  0  0  0  0  0
   10.1181   -0.4739    0.0000 C   0  0  0  0  0  0  0  0  0  0  0  0
    9.1144   -1.5886    0.0000 C   0  0  0  0  0  0  0  0  0  0  0  0
    7.6471   -1.2767    0.0000 C   0  0  0  0  0  0  0  0  0  0  0  0
    7.1836    0.1499    0.0000 C   0  0  0  0  0  0  0  0  0  0  0  0
    5.7164    0.4617    0.0000 C   0  0  0  0  0  0  0  0  0  0  0  0
    4.7127   -0.6530    0.0000 N   0  0  0  0  0  0  0  0  0  0  0  0
    3.2455   -0.3411    0.0000 C   0  0  0  0  0  0  0  0  0  0  0  0
    2.7820    1.0855    0.0000 O   0  0  0  0  0  0  0  0  0  0  0  0
    2.2418   -1.4558    0.0000 C   0  0  0  0  0  0  0  0  0  0  0  0
    2.5537   -2.9231    0.0000 C   0  0  0  0  0  0  0  0  0  0  0  0
    1.2546   -3.6731    0.0000 N   0  0  0  0  0  0  0  0  0  0  0  0
    1.0978   -5.1648    0.0000 C   0  0  0  0  0  0  0  0  0  0  0  0
    2.3113   -6.0465    0.0000 O   0  0  0  0  0  0  0  0  0  0  0  0
   -0.2725   -5.7749    0.0000 C   0  0  0  0  0  0  0  0  0  0  0  0
   -1.4860   -4.8933    0.0000 C   0  0  0  0  0  0  0  0  0  0  0  0
   -2.8563   -5.5034    0.0000 C   0  0  0  0  0  0  0  0  0  0  0  0
   -3.0131   -6.9951    0.0000 C   0  0  0  0  0  0  0  0  0  0  0  0
   -1.7996   -7.8768    0.0000 C   0  0  0  0  0  0  0  0  0  0  0  0
   -0.4293   -7.2667    0.0000 C   0  0  0  0  0  0  0  0  0  0  0  0
    0.1399   -2.6694    0.0000 C   0  0  0  0  0  0  0  0  0  0  0  0
    0.7500   -1.2990    0.0000 C   0  0  0  0  0  0  0  0  0  0  0  0
    1.5000    0.0000    0.0000 C   0  0  0  0  0  0  0  0  0  0  0  0
    0.7500    1.2990    0.0000 C   0  0  0  0  0  0  0  0  0  0  0  0
   -0.7500    1.2990    0.0000 N   0  0  0  0  0  4  0  0  0  0  0  0
   -1.5000    0.0000    0.0000 C   0  0  0  0  0  0  0  0  0  0  0  0
   -0.7500   -1.2990    0.0000 C   0  0  0  0  0  0  0  0  0  0  0  0
    8.1873    1.2646    0.0000 C   0  0  0  0  0  0  0  0  0  0  0  0
    9.6545    0.9527    0.0000 C   0  0  0  0  0  0  0  0  0  0  0  0
  1  2  2  0
  2  3  1  0
  2  4  1  0
  4  5  1  0
  5  6  1  0
  6  7  1  0
  7  8  1  0
  8  9  1  0
  9 10  1  0
 10 11  2  0
 12 10  1  6
 12 13  1  0
 13 14  1  0
 14 15  1  0
 15 16  2  0
 17 15  1  1
 17 18  1  0
 18 19  1  0
 19 20  2  0
 20 21  1  0
 21 22  1  0
 14 23  1  0
 23 24  1  0
 24 25  1  0
 25 26  1  0
 26 27  1  0
 27 28  1  0
 28 29  1  0
  7 30  1  0
 30 31  1  0
 31  4  1  0
 24 12  1  0
 22 17  1  0
 29 24  1  0
M  CHG  2   3  -1  27   1
M  END
>  <Compound_ID>  (59) 
C39662832

>  <Active>  (59) 
0

>  <Smiles>  (59) 
O=C([O-])C1CCC(CNC(=O)[C@@H]2CN(C(=O)[C@@H]3CC=CCC3)CC23CC[NH2+]CC3)CC1

>  <canonical_smi>  (59) 
O=C([O-])C1CCC(CNC(=O)[C@@H]2CN(C(=O)[C@@H]3CC=CCC3)CC23CC[NH2+]CC3)CC1

>  <Set>  (59) 
G2 inactive

>  <Set_type>  (59) 
Train

>  <MW>  (59) 
431.58

>  <HBD>  (59) 
2

>  <HBA>  (59) 
4

>  <NRB>  (59) 
5

>  <NR>  (59) 
4

>  <NAR>  (59) 
0

>  <PSA>  (59) 
106.15

>  <Standard Type>  (59) 
nan

>  <Standard Relation>  (59) 
nan

>  <Standard Units>  (59) 
nan

>  <Standard Value>  (59) 
nan

>  <Assay ChEMBL ID>  (59) 
nan

>  <Assay Description>  (59) 
nan

>  <BAO Label>  (59) 
nan

$$$$

     RDKit          2D

 24 25  0  0  0  0  0  0  0  0999 V2000
   -5.0078   -8.4577    0.0000 C   0  0  0  0  0  0  0  0  0  0  0  0
   -3.6375   -7.8476    0.0000 C   0  0  0  0  0  0  0  0  0  0  0  0
   -2.4240   -8.7293    0.0000 S   0  0  0  0  0  0  0  0  0  0  0  0
   -1.0537   -8.1192    0.0000 C   0  0  0  0  0  0  0  0  0  0  0  0
    0.2454   -8.8692    0.0000 N   0  0  0  0  0  0  0  0  0  0  0  0
    1.3601   -7.8655    0.0000 N   0  0  0  0  0  0  0  0  0  0  0  0
    0.7500   -6.4952    0.0000 C   0  0  0  0  0  0  0  0  0  0  0  0
    1.5000   -5.1962    0.0000 N   0  0  0  0  0  0  0  0  0  0  0  0
    0.7500   -3.8971    0.0000 N   0  0  0  0  0  0  0  0  0  0  0  0
    1.5000   -2.5981    0.0000 C   0  0  0  0  0  0  0  0  0  0  0  0
    0.7500   -1.2990    0.0000 C   0  0  0  0  0  0  0  0  0  0  0  0
    1.5000    0.0000    0.0000 C   0  0  0  0  0  0  0  0  0  0  0  0
    0.7500    1.2990    0.0000 C   0  0  0  0  0  0  0  0  0  0  0  0
    1.5000    2.5981    0.0000 Br  0  0  0  0  0  0  0  0  0  0  0  0
   -0.7500    1.2990    0.0000 C   0  0  0  0  0  0  0  0  0  0  0  0
   -1.5000    0.0000    0.0000 C   0  0  0  0  0  0  0  0  0  0  0  0
   -0.7500   -1.2990    0.0000 C   0  0  0  0  0  0  0  0  0  0  0  0
   -1.5000   -2.5981    0.0000 O   0  0  0  0  0  0  0  0  0  0  0  0
   -0.7418   -6.6520    0.0000 N   0  0  0  0  0  0  0  0  0  0  0  0
   -3.4807   -6.3558    0.0000 C   0  0  0  0  0  0  0  0  0  0  0  0
   -2.1104   -5.7457    0.0000 O   0  0  0  0  0  0  0  0  0  0  0  0
   -4.6942   -5.4742    0.0000 N   0  0  0  0  0  0  0  0  0  0  0  0
   -4.5374   -3.9824    0.0000 C   0  0  0  0  0  0  0  0  0  0  0  0
   -6.0645   -6.0843    0.0000 C   0  0  0  0  0  0  0  0  0  0  0  0
  2  1  1  1
  2  3  1  0
  3  4  1  0
  4  5  2  0
  5  6  1  0
  6  7  1  0
  7  8  1  0
  8  9  1  0
  9 10  2  0
 10 11  1  0
 11 12  2  0
 12 13  1  0
 13 14  1  0
 13 15  2  0
 15 16  1  0
 16 17  2  0
 17 18  1  0
  7 19  2  0
  2 20  1  0
 20 21  2  0
 20 22  1  0
 22 23  1  0
 22 24  1  0
 19  4  1  0
 17 11  1  0
M  END
>  <Compound_ID>  (60) 
C59815999

>  <Active>  (60) 
0

>  <Smiles>  (60) 
C[C@H](Sc1n[nH]c(N/N=C/c2cc(Br)ccc2O)n1)C(=O)N(C)C

>  <canonical_smi>  (60) 
C[C@H](Sc1n[nH]c(N/N=C/c2cc(Br)ccc2O)n1)C(=O)N(C)C

>  <Set>  (60) 
G2 inactive

>  <Set_type>  (60) 
Train

>  <MW>  (60) 
413.3

>  <HBD>  (60) 
3

>  <HBA>  (60) 
6

>  <NRB>  (60) 
6

>  <NR>  (60) 
2

>  <NAR>  (60) 
2

>  <PSA>  (60) 
106.5

>  <Standard Type>  (60) 
nan

>  <Standard Relation>  (60) 
nan

>  <Standard Units>  (60) 
nan

>  <Standard Value>  (60) 
nan

>  <Assay ChEMBL ID>  (60) 
nan

>  <Assay Description>  (60) 
nan

>  <BAO Label>  (60) 
nan

$$$$

     RDKit          2D

 30 33  0  0  0  0  0  0  0  0999 V2000
   -0.0000  -15.5885    0.0000 C   0  0  0  0  0  0  0  0  0  0  0  0
    1.5000  -15.5885    0.0000 C   0  0  0  0  0  0  0  0  0  0  0  0
    2.2500  -16.8875    0.0000 C   0  0  0  0  0  0  0  0  0  0  0  0
    2.2500  -14.2894    0.0000 C   0  0  0  0  0  0  0  0  0  0  0  0
    1.5000  -12.9904    0.0000 C   0  0  0  0  0  0  0  0  0  0  0  0
    2.2500  -11.6913    0.0000 C   0  0  0  0  0  0  0  0  0  0  0  0
    3.7500  -11.6913    0.0000 C   0  0  0  0  0  0  0  0  0  0  0  0
    4.5000  -10.3923    0.0000 C   0  0  0  0  0  0  0  0  0  0  0  0
    6.0000  -10.3923    0.0000 O   0  0  0  0  0  0  0  0  0  0  0  0
    3.7500   -9.0933    0.0000 N   0  0  0  0  0  0  0  0  0  0  0  0
    4.5000   -7.7942    0.0000 C   0  0  0  0  0  0  0  0  0  0  0  0
    3.7500   -6.4952    0.0000 C   0  0  0  0  0  0  0  0  0  0  0  0
    2.2500   -6.4952    0.0000 N   0  0  0  0  0  0  0  0  0  0  0  0
    1.5000   -5.1962    0.0000 S   0  0  0  0  0  0  0  0  0  0  0  0
    0.2010   -5.9462    0.0000 O   0  0  0  0  0  0  0  0  0  0  0  0
    2.7990   -4.4462    0.0000 O   0  0  0  0  0  0  0  0  0  0  0  0
    0.7500   -3.8971    0.0000 C   0  0  0  0  0  0  0  0  0  0  0  0
   -0.7500   -3.8971    0.0000 C   0  0  0  0  0  0  0  0  0  0  0  0
   -1.5000   -2.5981    0.0000 C   0  0  0  0  0  0  0  0  0  0  0  0
   -0.7500   -1.2990    0.0000 C   0  0  0  0  0  0  0  0  0  0  0  0
    0.7500   -1.2990    0.0000 C   0  0  0  0  0  0  0  0  0  0  0  0
    1.5000   -2.5981    0.0000 C   0  0  0  0  0  0  0  0  0  0  0  0
    1.5000    0.0000    0.0000 O   0  0  0  0  0  0  0  0  0  0  0  0
    0.7500    1.2990    0.0000 C   0  0  0  0  0  0  0  0  0  0  0  0
   -0.7500    1.2990    0.0000 C   0  0  0  0  0  0  0  0  0  0  0  0
   -1.5000    0.0000    0.0000 O   0  0  0  0  0  0  0  0  0  0  0  0
    1.5000   -7.7942    0.0000 C   0  0  0  0  0  0  0  0  0  0  0  0
    2.2500   -9.0933    0.0000 C   0  0  0  0  0  0  0  0  0  0  0  0
    4.5000  -12.9904    0.0000 C   0  0  0  0  0  0  0  0  0  0  0  0
    3.7500  -14.2894    0.0000 C   0  0  0  0  0  0  0  0  0  0  0  0
  1  2  1  0
  2  3  1  0
  2  4  1  0
  4  5  2  0
  5  6  1  0
  6  7  2  0
  7  8  1  0
  8  9  2  0
  8 10  1  0
 10 11  1  0
 11 12  1  0
 12 13  1  0
 13 14  1  0
 14 15  2  0
 14 16  2  0
 14 17  1  0
 17 18  2  0
 18 19  1  0
 19 20  2  0
 20 21  1  0
 21 22  2  0
 21 23  1  0
 23 24  1  0
 24 25  1  0
 25 26  1  0
 13 27  1  0
 27 28  1  0
  7 29  1  0
 29 30  2  0
 30  4  1  0
 28 10  1  0
 22 17  1  0
 26 20  1  0
M  END
>  <Compound_ID>  (61) 
C15930475

>  <Active>  (61) 
0

>  <Smiles>  (61) 
CC(C)c1ccc(C(=O)N2CCN(S(=O)(=O)c3ccc4c(c3)OCCO4)CC2)cc1

>  <canonical_smi>  (61) 
CC(C)c1ccc(C(=O)N2CCN(S(=O)(=O)c3ccc4c(c3)OCCO4)CC2)cc1

>  <Set>  (61) 
G2 inactive

>  <Set_type>  (61) 
Train

>  <MW>  (61) 
430.53

>  <HBD>  (61) 
0

>  <HBA>  (61) 
5

>  <NRB>  (61) 
4

>  <NR>  (61) 
4

>  <NAR>  (61) 
2

>  <PSA>  (61) 
76.15

>  <Standard Type>  (61) 
nan

>  <Standard Relation>  (61) 
nan

>  <Standard Units>  (61) 
nan

>  <Standard Value>  (61) 
nan

>  <Assay ChEMBL ID>  (61) 
nan

>  <Assay Description>  (61) 
nan

>  <BAO Label>  (61) 
nan

$$$$

     RDKit          2D

 26 28  0  0  0  0  0  0  0  0999 V2000
    3.7500   -1.2990    0.0000 C   0  0  0  0  0  0  0  0  0  0  0  0
    3.0000    0.0000    0.0000 O   0  0  0  0  0  0  0  0  0  0  0  0
    1.5000    0.0000    0.0000 C   0  0  0  0  0  0  0  0  0  0  0  0
    0.7500   -1.2990    0.0000 C   0  0  0  0  0  0  0  0  0  0  0  0
   -0.7500   -1.2990    0.0000 C   0  0  0  0  0  0  0  0  0  0  0  0
   -1.5000    0.0000    0.0000 C   0  0  0  0  0  0  0  0  0  0  0  0
   -3.0000    0.0000    0.0000 N   0  0  0  0  0  2  0  0  0  0  0  0
   -3.7500    1.2990    0.0000 S   0  0  0  0  0  0  0  0  0  0  0  0
   -2.4510    2.0490    0.0000 O   0  0  0  0  0  0  0  0  0  0  0  0
   -5.0490    0.5490    0.0000 O   0  0  0  0  0  0  0  0  0  0  0  0
   -4.5000    2.5981    0.0000 C   0  0  0  0  0  0  0  0  0  0  0  0
   -5.9918    2.7549    0.0000 C   0  0  0  0  0  0  0  0  0  0  0  0
   -6.3037    4.2221    0.0000 C   0  0  0  0  0  0  0  0  0  0  0  0
   -5.0046    4.9721    0.0000 C   0  0  0  0  0  0  0  0  0  0  0  0
   -4.8478    6.4639    0.0000 C   0  0  0  0  0  0  0  0  0  0  0  0
   -3.4775    7.0740    0.0000 C   0  0  0  0  0  0  0  0  0  0  0  0
   -3.3207    8.5658    0.0000 C   0  0  0  0  0  0  0  0  0  0  0  0
   -4.5342    9.4474    0.0000 C   0  0  0  0  0  0  0  0  0  0  0  0
   -4.3774   10.9392    0.0000 O   0  0  0  0  0  0  0  0  0  0  0  0
   -5.9046    8.8373    0.0000 N   0  0  0  0  0  0  0  0  0  0  0  0
   -6.0613    7.3456    0.0000 N   0  0  0  0  0  0  0  0  0  0  0  0
   -3.8899    3.9684    0.0000 S   0  0  0  0  0  0  0  0  0  0  0  0
   -0.7500    1.2990    0.0000 C   0  0  0  0  0  0  0  0  0  0  0  0
   -1.5000    2.5981    0.0000 O   0  0  0  0  0  0  0  0  0  0  0  0
   -0.7500    3.8971    0.0000 C   0  0  0  0  0  0  0  0  0  0  0  0
    0.7500    1.2990    0.0000 C   0  0  0  0  0  0  0  0  0  0  0  0
  1  2  1  0
  2  3  1  0
  3  4  2  0
  4  5  1  0
  5  6  2  0
  6  7  1  0
  7  8  1  0
  8  9  2  0
  8 10  2  0
  8 11  1  0
 11 12  2  0
 12 13  1  0
 13 14  2  0
 14 15  1  0
 15 16  1  0
 16 17  2  0
 17 18  1  0
 18 19  2  0
 18 20  1  0
 20 21  1  0
 14 22  1  0
  6 23  1  0
 23 24  1  0
 24 25  1  0
 23 26  2  0
 26  3  1  0
 22 11  1  0
 21 15  2  0
M  CHG  1   7  -1
M  END
>  <Compound_ID>  (62) 
C20574698

>  <Active>  (62) 
0

>  <Smiles>  (62) 
COc1ccc([N-]S(=O)(=O)c2ccc(-c3ccc(=O)[nH]n3)s2)c(OC)c1

>  <canonical_smi>  (62) 
COc1ccc([N-]S(=O)(=O)c2ccc(-c3ccc(=O)[nH]n3)s2)c(OC)c1

>  <Set>  (62) 
G2 inactive

>  <Set_type>  (62) 
Train

>  <MW>  (62) 
392.44

>  <HBD>  (62) 
1

>  <HBA>  (62) 
6

>  <NRB>  (62) 
6

>  <NR>  (62) 
3

>  <NAR>  (62) 
3

>  <PSA>  (62) 
112.45

>  <Standard Type>  (62) 
nan

>  <Standard Relation>  (62) 
nan

>  <Standard Units>  (62) 
nan

>  <Standard Value>  (62) 
nan

>  <Assay ChEMBL ID>  (62) 
nan

>  <Assay Description>  (62) 
nan

>  <BAO Label>  (62) 
nan

$$$$

     RDKit          2D

 20 23  0  0  0  0  0  0  0  0999 V2000
    1.2760    0.0000    0.0000 C   0  0  0  0  0  0  0  0  0  0  0  0
    0.3943    1.2135    0.0000 C   0  0  0  0  0  0  0  0  0  0  0  0
   -1.0323    0.7500    0.0000 C   0  0  0  0  0  0  0  0  0  0  0  0
   -1.0323   -0.7500    0.0000 C   0  0  0  0  0  0  0  0  0  0  0  0
    0.3943   -1.2135    0.0000 S   0  0  0  0  0  0  0  0  0  0  0  0
   -2.3313   -1.5000    0.0000 C   0  0  0  0  0  0  0  0  0  0  0  0
   -3.6304   -0.7500    0.0000 C   0  0  0  0  0  0  0  0  0  0  0  0
   -3.6304    0.7500    0.0000 N   0  0  0  0  0  0  0  0  0  0  0  0
   -2.3313    1.5000    0.0000 C   0  0  0  0  0  0  0  0  0  0  0  0
   -2.3313    3.0000    0.0000 C   0  0  0  0  0  0  0  0  0  0  0  0
   -3.5449    3.8817    0.0000 N   0  0  0  0  0  0  0  0  0  0  0  0
   -3.0813    5.3083    0.0000 C   0  0  0  0  0  0  0  0  0  0  0  0
   -3.9630    6.5218    0.0000 C   0  0  0  0  0  0  0  0  0  0  0  0
   -3.3529    7.8921    0.0000 C   0  0  0  0  0  0  0  0  0  0  0  0
   -4.2346    9.1056    0.0000 C   0  0  0  0  0  0  0  0  0  0  0  0
   -5.7264    8.9488    0.0000 C   0  0  0  0  0  0  0  0  0  0  0  0
   -6.3365    7.5785    0.0000 C   0  0  0  0  0  0  0  0  0  0  0  0
   -5.4548    6.3650    0.0000 C   0  0  0  0  0  0  0  0  0  0  0  0
   -1.5813    5.3083    0.0000 N   0  0  0  0  0  0  0  0  0  0  0  0
   -1.1178    3.8817    0.0000 O   0  0  0  0  0  0  0  0  0  0  0  0
  1  2  2  0
  2  3  1  0
  3  4  2  0
  4  5  1  0
  4  6  1  0
  6  7  1  0
  7  8  1  0
  8  9  1  0
  9 10  1  1
 10 11  2  0
 11 12  1  0
 12 13  1  0
 13 14  1  0
 14 15  1  0
 15 16  1  0
 16 17  1  0
 17 18  1  0
 12 19  2  0
 19 20  1  0
  5  1  1  0
 20 10  1  0
  9  3  1  0
 18 13  1  0
M  END
>  <Compound_ID>  (63) 
C44592968

>  <Active>  (63) 
0

>  <Smiles>  (63) 
c1cc2c(s1)CCN[C@H]2c1nc(C2CCCCC2)no1

>  <canonical_smi>  (63) 
c1cc2c(s1)CCN[C@H]2c1nc(C2CCCCC2)no1

>  <Set>  (63) 
G2 inactive

>  <Set_type>  (63) 
Test

>  <MW>  (63) 
289.4

>  <HBD>  (63) 
1

>  <HBA>  (63) 
4

>  <NRB>  (63) 
2

>  <NR>  (63) 
4

>  <NAR>  (63) 
2

>  <PSA>  (63) 
50.95

>  <Standard Type>  (63) 
nan

>  <Standard Relation>  (63) 
nan

>  <Standard Units>  (63) 
nan

>  <Standard Value>  (63) 
nan

>  <Assay ChEMBL ID>  (63) 
nan

>  <Assay Description>  (63) 
nan

>  <BAO Label>  (63) 
nan

$$$$

     RDKit          2D

 32 36  0  0  0  0  0  0  0  0999 V2000
    3.0000    0.0000    0.0000 F   0  0  0  0  0  0  0  0  0  0  0  0
    1.5000    0.0000    0.0000 C   0  0  0  0  0  0  0  0  0  0  0  0
    0.7500   -1.2990    0.0000 C   0  0  0  0  0  0  0  0  0  0  0  0
   -0.7500   -1.2990    0.0000 C   0  0  0  0  0  0  0  0  0  0  0  0
   -1.5000    0.0000    0.0000 C   0  0  0  0  0  0  0  0  0  0  0  0
   -3.0000    0.0000    0.0000 N   0  0  0  0  0  0  0  0  0  0  0  0
   -3.8817   -1.2135    0.0000 C   0  0  0  0  0  0  0  0  0  0  0  0
   -5.3083   -0.7500    0.0000 C   0  0  0  0  0  0  0  0  0  0  0  0
   -5.3083    0.7500    0.0000 C   0  0  0  0  0  0  0  0  0  0  0  0
   -3.8817    1.2135    0.0000 N   0  0  0  0  0  0  0  0  0  0  0  0
   -0.7500    1.2990    0.0000 C   0  0  0  0  0  0  0  0  0  0  0  0
   -1.5000    2.5981    0.0000 C   0  0  0  0  0  0  0  0  0  0  0  0
   -0.7500    3.8971    0.0000 N   0  0  0  0  0  4  0  0  0  0  0  0
   -1.5000    5.1962    0.0000 C   0  0  0  0  0  0  0  0  0  0  0  0
   -3.0000    5.1962    0.0000 C   0  0  0  0  0  0  0  0  0  0  0  0
   -3.7500    3.8971    0.0000 C   0  0  0  0  0  0  0  0  0  0  0  0
   -5.2500    3.8971    0.0000 C   0  0  0  0  0  0  0  0  0  0  0  0
   -6.0000    5.1962    0.0000 N   0  0  0  0  0  4  0  0  0  0  0  0
   -7.5000    5.1962    0.0000 C   0  0  0  0  0  0  0  0  0  0  0  0
   -8.3817    6.4097    0.0000 C   0  0  0  0  0  0  0  0  0  0  0  0
   -9.8083    5.9462    0.0000 C   0  0  0  0  0  0  0  0  0  0  0  0
   -9.8083    4.4462    0.0000 C   0  0  0  0  0  0  0  0  0  0  0  0
   -8.3817    3.9826    0.0000 C   0  0  0  0  0  0  0  0  0  0  0  0
   -5.2500    6.4952    0.0000 C   0  0  0  0  0  0  0  0  0  0  0  0
   -3.7500    6.4952    0.0000 C   0  0  0  0  0  0  0  0  0  0  0  0
    0.7500    3.8971    0.0000 C   0  0  0  0  0  0  0  0  0  0  0  0
    1.5000    5.1962    0.0000 C   0  0  0  0  0  0  0  0  0  0  0  0
    2.9918    5.3529    0.0000 C   0  0  0  0  0  0  0  0  0  0  0  0
    3.3037    6.8202    0.0000 C   0  0  0  0  0  0  0  0  0  0  0  0
    2.0046    7.5702    0.0000 C   0  0  0  0  0  0  0  0  0  0  0  0
    0.8899    6.5665    0.0000 O   0  0  0  0  0  0  0  0  0  0  0  0
    0.7500    1.2990    0.0000 C   0  0  0  0  0  0  0  0  0  0  0  0
  1  2  1  0
  2  3  2  0
  3  4  1  0
  4  5  2  0
  5  6  1  0
  6  7  1  0
  7  8  2  0
  8  9  1  0
  9 10  2  0
  5 11  1  0
 11 12  1  0
 12 13  1  0
 13 14  1  0
 14 15  1  0
 15 16  1  0
 16 17  1  0
 17 18  1  0
 18 19  1  0
 19 20  1  0
 20 21  1  0
 21 22  1  0
 22 23  1  0
 18 24  1  0
 24 25  1  0
 13 26  1  0
 27 26  1  6
 27 28  1  0
 28 29  1  0
 29 30  1  0
 30 31  1  0
 11 32  2  0
 32  2  1  0
 10  6  1  0
 25 15  1  0
 31 27  1  0
 23 19  1  0
M  CHG  2  13   1  18   1
M  END
>  <Compound_ID>  (64) 
C12438109

>  <Active>  (64) 
0

>  <Smiles>  (64) 
Fc1ccc(-n2cccn2)c(C[NH+](CC2CC[NH+](C3CCCC3)CC2)C[C@H]2CCCO2)c1

>  <canonical_smi>  (64) 
Fc1ccc(-n2cccn2)c(C[NH+](CC2CC[NH+](C3CCCC3)CC2)C[C@H]2CCCO2)c1

>  <Set>  (64) 
G2 inactive

>  <Set_type>  (64) 
Test

>  <MW>  (64) 
442.62

>  <HBD>  (64) 
2

>  <HBA>  (64) 
2

>  <NRB>  (64) 
8

>  <NR>  (64) 
5

>  <NAR>  (64) 
2

>  <PSA>  (64) 
35.93

>  <Standard Type>  (64) 
nan

>  <Standard Relation>  (64) 
nan

>  <Standard Units>  (64) 
nan

>  <Standard Value>  (64) 
nan

>  <Assay ChEMBL ID>  (64) 
nan

>  <Assay Description>  (64) 
nan

>  <BAO Label>  (64) 
nan

$$$$

     RDKit          2D

 24 25  0  0  0  0  0  0  0  0999 V2000
    3.0000    0.0000    0.0000 C   0  0  0  0  0  0  0  0  0  0  0  0
    1.5000    0.0000    0.0000 C   0  0  0  0  0  0  0  0  0  0  0  0
    0.7500   -1.2990    0.0000 C   0  0  0  0  0  0  0  0  0  0  0  0
   -0.7500   -1.2990    0.0000 C   0  0  0  0  0  0  0  0  0  0  0  0
   -1.5000    0.0000    0.0000 C   0  0  0  0  0  0  0  0  0  0  0  0
   -3.0000    0.0000    0.0000 N   0  0  0  0  0  0  0  0  0  0  0  0
   -3.7500    1.2990    0.0000 C   0  0  0  0  0  0  0  0  0  0  0  0
   -3.0000    2.5981    0.0000 O   0  0  0  0  0  0  0  0  0  0  0  0
   -5.2500    1.2990    0.0000 N   0  0  0  0  0  0  0  0  0  0  0  0
   -6.0000    2.5981    0.0000 C   0  0  0  0  0  0  0  0  0  0  0  0
   -7.5000    2.5981    0.0000 C   0  0  0  0  0  0  0  0  0  0  0  0
   -8.3817    1.3846    0.0000 C   0  0  0  0  0  0  0  0  0  0  0  0
   -9.8083    1.8481    0.0000 C   0  0  0  0  0  0  0  0  0  0  0  0
   -9.8083    3.3481    0.0000 C   0  0  0  0  0  0  0  0  0  0  0  0
  -11.0218    4.2298    0.0000 Cl  0  0  0  0  0  0  0  0  0  0  0  0
   -8.3817    3.8116    0.0000 S   0  0  0  0  0  0  0  0  0  0  0  0
   -0.7500    1.2990    0.0000 C   0  0  0  0  0  0  0  0  0  0  0  0
    0.7500    1.2990    0.0000 C   0  0  0  0  0  0  0  0  0  0  0  0
    1.5000    2.5981    0.0000 C   0  0  0  0  0  0  0  0  0  0  0  0
    3.0000    2.5981    0.0000 O   0  0  0  0  0  0  0  0  0  0  0  0
    0.7500    3.8971    0.0000 N   0  0  0  0  0  0  0  0  0  0  0  0
    1.5000    5.1962    0.0000 C   0  0  0  0  0  0  0  0  0  0  0  0
    0.7500    6.4952    0.0000 C   0  0  0  0  0  0  0  0  0  0  0  0
    3.0000    5.1962    0.0000 C   0  0  0  0  0  0  0  0  0  0  0  0
  1  2  1  0
  2  3  2  0
  3  4  1  0
  4  5  2  0
  5  6  1  0
  6  7  1  0
  7  8  2  0
  7  9  1  0
  9 10  1  0
 10 11  1  0
 11 12  2  0
 12 13  1  0
 13 14  2  0
 14 15  1  0
 14 16  1  0
  5 17  1  0
 17 18  2  0
 18 19  1  0
 19 20  2  0
 19 21  1  0
 21 22  1  0
 22 23  1  0
 22 24  1  0
 18  2  1  0
 16 11  1  0
M  END
>  <Compound_ID>  (65) 
C66684701

>  <Active>  (65) 
0

>  <Smiles>  (65) 
Cc1ccc(NC(=O)NCc2ccc(Cl)s2)cc1C(=O)NC(C)C

>  <canonical_smi>  (65) 
Cc1ccc(NC(=O)NCc2ccc(Cl)s2)cc1C(=O)NC(C)C

>  <Set>  (65) 
G2 inactive

>  <Set_type>  (65) 
Test

>  <MW>  (65) 
365.89

>  <HBD>  (65) 
3

>  <HBA>  (65) 
2

>  <NRB>  (65) 
5

>  <NR>  (65) 
2

>  <NAR>  (65) 
2

>  <PSA>  (65) 
70.23

>  <Standard Type>  (65) 
nan

>  <Standard Relation>  (65) 
nan

>  <Standard Units>  (65) 
nan

>  <Standard Value>  (65) 
nan

>  <Assay ChEMBL ID>  (65) 
nan

>  <Assay Description>  (65) 
nan

>  <BAO Label>  (65) 
nan

$$$$

     RDKit          2D

 22 23  0  0  0  0  0  0  0  0999 V2000
    7.5000   -2.5981    0.0000 C   0  0  0  0  0  0  0  0  0  0  0  0
    6.0000   -2.5981    0.0000 C   0  0  0  0  0  0  0  0  0  0  0  0
    5.2500   -3.8971    0.0000 C   0  0  0  0  0  0  0  0  0  0  0  0
    5.2500   -1.2990    0.0000 C   0  0  0  0  0  0  0  0  0  0  0  0
    3.7500   -1.2990    0.0000 C   0  0  0  0  0  0  0  0  0  0  0  0
    3.0000    0.0000    0.0000 N   0  0  0  0  0  0  0  0  0  0  0  0
    1.5000    0.0000    0.0000 C   0  0  0  0  0  0  0  0  0  0  0  0
    0.7500   -1.2990    0.0000 N   0  0  0  0  0  0  0  0  0  0  0  0
   -0.7500   -1.2990    0.0000 C   0  0  0  0  0  0  0  0  0  0  0  0
   -1.5000    0.0000    0.0000 N   0  0  0  0  0  0  0  0  0  0  0  0
   -0.7500    1.2990    0.0000 C   0  0  0  0  0  0  0  0  0  0  0  0
   -1.5000    2.5981    0.0000 N   0  0  0  0  0  0  0  0  0  0  0  0
   -3.0000    2.5981    0.0000 C   0  0  0  0  0  0  0  0  0  0  0  0
   -3.7500    3.8971    0.0000 C   0  0  0  0  0  0  0  0  0  0  0  0
   -5.2500    3.8971    0.0000 C   0  0  0  0  0  0  0  0  0  0  0  0
   -6.0000    5.1962    0.0000 Cl  0  0  0  0  0  0  0  0  0  0  0  0
   -6.0000    2.5981    0.0000 C   0  0  0  0  0  0  0  0  0  0  0  0
   -5.2500    1.2990    0.0000 C   0  0  0  0  0  0  0  0  0  0  0  0
   -3.7500    1.2990    0.0000 C   0  0  0  0  0  0  0  0  0  0  0  0
   -3.0000   -0.0000    0.0000 Cl  0  0  0  0  0  0  0  0  0  0  0  0
    0.7500    1.2990    0.0000 C   0  0  0  0  0  0  0  0  0  0  0  0
    1.5000    2.5981    0.0000 N   0  0  0  0  0  0  0  0  0  0  0  0
  1  2  1  0
  2  3  1  0
  2  4  1  0
  4  5  1  0
  5  6  1  0
  6  7  1  0
  7  8  2  0
  8  9  1  0
  9 10  2  0
 10 11  1  0
 11 12  1  0
 12 13  1  0
 13 14  2  0
 14 15  1  0
 15 16  1  0
 15 17  2  0
 17 18  1  0
 18 19  2  0
 19 20  1  0
 11 21  2  0
 21 22  1  0
 21  7  1  0
 19 13  1  0
M  END
>  <Compound_ID>  (66) 
C40778329

>  <Active>  (66) 
0

>  <Smiles>  (66) 
CC(C)CCNc1ncnc(Nc2cc(Cl)ccc2Cl)c1N

>  <canonical_smi>  (66) 
CC(C)CCNc1ncnc(Nc2cc(Cl)ccc2Cl)c1N

>  <Set>  (66) 
G2 inactive

>  <Set_type>  (66) 
Test

>  <MW>  (66) 
340.26

>  <HBD>  (66) 
3

>  <HBA>  (66) 
5

>  <NRB>  (66) 
6

>  <NR>  (66) 
2

>  <NAR>  (66) 
2

>  <PSA>  (66) 
75.86

>  <Standard Type>  (66) 
nan

>  <Standard Relation>  (66) 
nan

>  <Standard Units>  (66) 
nan

>  <Standard Value>  (66) 
nan

>  <Assay ChEMBL ID>  (66) 
nan

>  <Assay Description>  (66) 
nan

>  <BAO Label>  (66) 
nan

$$$$

     RDKit          2D

 26 29  0  0  0  0  0  0  0  0999 V2000
   -3.7500    1.2990    0.0000 O   0  0  0  0  0  0  0  0  0  0  0  0
   -3.0000    0.0000    0.0000 C   0  0  0  0  0  0  0  0  0  0  0  0
   -3.7500   -1.2990    0.0000 N   0  0  0  0  0  0  0  0  0  0  0  0
   -3.0000   -2.5981    0.0000 C   0  0  0  0  0  0  0  0  0  0  0  0
   -3.7500   -3.8971    0.0000 O   0  0  0  0  0  0  0  0  0  0  0  0
   -1.5000   -2.5981    0.0000 C   0  0  0  0  0  0  0  0  0  0  0  0
   -0.7500   -3.8971    0.0000 C   0  0  0  0  0  0  0  0  0  0  0  0
    0.7500   -3.8971    0.0000 C   0  0  0  0  0  0  0  0  0  0  0  0
    1.5000   -5.1962    0.0000 S   0  0  0  0  0  0  0  0  0  0  0  0
    0.2010   -5.9462    0.0000 O   0  0  0  0  0  0  0  0  0  0  0  0
    2.7990   -4.4462    0.0000 O   0  0  0  0  0  0  0  0  0  0  0  0
    2.2500   -6.4952    0.0000 N   0  0  0  0  0  0  0  0  0  0  0  0
    3.7500   -6.4952    0.0000 C   0  0  0  0  0  0  0  0  0  0  0  0
    4.5000   -7.7942    0.0000 C   0  0  0  0  0  0  0  0  0  0  0  0
    6.0000   -7.7942    0.0000 C   0  0  0  0  0  0  0  0  0  0  0  0
    6.7500   -6.4952    0.0000 C   0  0  0  0  0  0  0  0  0  0  0  0
    8.2500   -6.4952    0.0000 I   0  0  0  0  0  0  0  0  0  0  0  0
    6.0000   -5.1962    0.0000 C   0  0  0  0  0  0  0  0  0  0  0  0
    4.5000   -5.1962    0.0000 C   0  0  0  0  0  0  0  0  0  0  0  0
    1.5000   -2.5981    0.0000 C   0  0  0  0  0  0  0  0  0  0  0  0
    0.7500   -1.2990    0.0000 C   0  0  0  0  0  0  0  0  0  0  0  0
    1.5000    0.0000    0.0000 C   0  0  0  0  0  0  0  0  0  0  0  0
    0.7500    1.2990    0.0000 C   0  0  0  0  0  0  0  0  0  0  0  0
   -0.7500    1.2990    0.0000 C   0  0  0  0  0  0  0  0  0  0  0  0
   -1.5000    0.0000    0.0000 C   0  0  0  0  0  0  0  0  0  0  0  0
   -0.7500   -1.2990    0.0000 C   0  0  0  0  0  0  0  0  0  0  0  0
  1  2  2  0
  2  3  1  0
  3  4  1  0
  4  5  2  0
  4  6  1  0
  6  7  1  0
  7  8  2  0
  8  9  1  0
  9 10  2  0
  9 11  2  0
  9 12  1  0
 12 13  1  0
 13 14  2  0
 14 15  1  0
 15 16  2  0
 16 17  1  0
 16 18  1  0
 18 19  2  0
  8 20  1  0
 20 21  2  0
 21 22  1  0
 22 23  2  0
 23 24  1  0
 24 25  2  0
 25 26  1  0
 25  2  1  0
 26  6  2  0
 19 13  1  0
 26 21  1  0
M  END
>  <Compound_ID>  (67) 
C02841858

>  <Active>  (67) 
0

>  <Smiles>  (67) 
O=C1NC(=O)c2cc(S(=O)(=O)Nc3ccc(I)cc3)cc3cccc1c23

>  <canonical_smi>  (67) 
O=C1NC(=O)c2cc(S(=O)(=O)Nc3ccc(I)cc3)cc3cccc1c23

>  <Set>  (67) 
G2 inactive

>  <Set_type>  (67) 
Test

>  <MW>  (67) 
478.27

>  <HBD>  (67) 
2

>  <HBA>  (67) 
4

>  <NRB>  (67) 
3

>  <NR>  (67) 
4

>  <NAR>  (67) 
3

>  <PSA>  (67) 
92.34

>  <Standard Type>  (67) 
nan

>  <Standard Relation>  (67) 
nan

>  <Standard Units>  (67) 
nan

>  <Standard Value>  (67) 
nan

>  <Assay ChEMBL ID>  (67) 
nan

>  <Assay Description>  (67) 
nan

>  <BAO Label>  (67) 
nan

$$$$

     RDKit          2D

 29 33  0  0  0  0  0  0  0  0999 V2000
   12.6911   -4.8097    0.0000 C   0  0  0  0  0  0  0  0  0  0  0  0
   11.5764   -3.8060    0.0000 C   0  0  0  0  0  0  0  0  0  0  0  0
   10.1498   -4.2695    0.0000 N   0  0  0  0  0  0  0  0  0  0  0  0
    9.0350   -3.2658    0.0000 C   0  0  0  0  0  0  0  0  0  0  0  0
    9.3469   -1.7986    0.0000 O   0  0  0  0  0  0  0  0  0  0  0  0
    7.6085   -3.7293    0.0000 C   0  0  0  0  0  0  0  0  0  0  0  0
    6.4937   -2.7256    0.0000 S   0  0  0  0  0  0  0  0  0  0  0  0
    5.0672   -3.1891    0.0000 C   0  0  0  0  0  0  0  0  0  0  0  0
    4.6036   -4.6157    0.0000 N   0  0  0  0  0  0  0  0  0  0  0  0
    3.1036   -4.6157    0.0000 N   0  0  0  0  0  0  0  0  0  0  0  0
    2.6401   -3.1891    0.0000 C   0  0  0  0  0  0  0  0  0  0  0  0
    1.2135   -2.7256    0.0000 C   0  0  0  0  0  0  0  0  0  0  0  0
    0.7500   -1.2990    0.0000 C   0  0  0  0  0  0  0  0  0  0  0  0
    1.5000    0.0000    0.0000 C   0  0  0  0  0  0  0  0  0  0  0  0
    0.7500    1.2990    0.0000 C   0  0  0  0  0  0  0  0  0  0  0  0
   -0.7500    1.2990    0.0000 C   0  0  0  0  0  0  0  0  0  0  0  0
   -1.5000    0.0000    0.0000 C   0  0  0  0  0  0  0  0  0  0  0  0
   -0.7500   -1.2990    0.0000 C   0  0  0  0  0  0  0  0  0  0  0  0
   -1.2135   -2.7256    0.0000 N   0  0  0  0  0  4  0  0  0  0  0  0
    0.0000   -3.6073    0.0000 C   0  0  0  0  0  0  0  0  0  0  0  0
    3.8536   -2.3075    0.0000 N   0  0  0  0  0  0  0  0  0  0  0  0
    3.8536   -0.8075    0.0000 C   0  0  0  0  0  0  0  0  0  0  0  0
    3.1036    0.4916    0.0000 C   0  0  0  0  0  0  0  0  0  0  0  0
    4.6036    0.4916    0.0000 C   0  0  0  0  0  0  0  0  0  0  0  0
   11.8882   -2.3387    0.0000 C   0  0  0  0  0  0  0  0  0  0  0  0
   10.8845   -1.2240    0.0000 C   0  0  0  0  0  0  0  0  0  0  0  0
   11.6345    0.0750    0.0000 C   0  0  0  0  0  0  0  0  0  0  0  0
   13.1017   -0.2369    0.0000 C   0  0  0  0  0  0  0  0  0  0  0  0
   13.2585   -1.7286    0.0000 S   0  0  0  0  0  0  0  0  0  0  0  0
  2  1  1  6
  2  3  1  0
  3  4  1  0
  4  5  2  0
  4  6  1  0
  6  7  1  0
  8  7  1  6
  8  9  1  0
  9 10  1  0
 10 11  2  0
 11 12  1  0
 12 13  2  0
 13 14  1  0
 14 15  2  0
 15 16  1  0
 16 17  2  0
 17 18  1  0
 18 19  2  0
 19 20  1  0
 11 21  1  0
 21 22  1  0
 22 23  1  0
 23 24  1  0
  2 25  1  0
 25 26  2  0
 26 27  1  0
 27 28  2  0
 28 29  1  0
 21  8  1  0
 24 22  1  0
 29 25  1  0
 20 12  1  0
 18 13  1  0
M  CHG  1  19   1
M  END
>  <Compound_ID>  (68) 
C64137689

>  <Active>  (68) 
0

>  <Smiles>  (68) 
C[C@H](NC(=O)CS[C@@H]1NN=C(C2=c3ccccc3=[NH+]C2)N1C1CC1)c1cccs1

>  <canonical_smi>  (68) 
C[C@H](NC(=O)CS[C@@H]1NN=C(C2=c3ccccc3=[NH+]C2)N1C1CC1)c1cccs1

>  <Set>  (68) 
G2 inactive

>  <Set_type>  (68) 
Test

>  <MW>  (68) 
426.59

>  <HBD>  (68) 
3

>  <HBA>  (68) 
4

>  <NRB>  (68) 
7

>  <NR>  (68) 
5

>  <NAR>  (68) 
2

>  <PSA>  (68) 
70.7

>  <Standard Type>  (68) 
nan

>  <Standard Relation>  (68) 
nan

>  <Standard Units>  (68) 
nan

>  <Standard Value>  (68) 
nan

>  <Assay ChEMBL ID>  (68) 
nan

>  <Assay Description>  (68) 
nan

>  <BAO Label>  (68) 
nan

$$$$

     RDKit          2D

 35 38  0  0  0  0  0  0  0  0999 V2000
   -6.2083   -9.0785    0.0000 C   0  0  0  0  0  0  0  0  0  0  0  0
   -6.6718   -7.6519    0.0000 C   0  0  0  0  0  0  0  0  0  0  0  0
   -5.6682   -6.5372    0.0000 C   0  0  0  0  0  0  0  0  0  0  0  0
   -6.1317   -5.1106    0.0000 N   0  0  0  0  0  0  0  0  0  0  0  0
   -5.2500   -3.8971    0.0000 C   0  0  0  0  0  0  0  0  0  0  0  0
   -3.7500   -3.8971    0.0000 C   0  0  0  0  0  0  0  0  0  0  0  0
   -3.0000   -2.5981    0.0000 N   0  0  0  0  0  0  0  0  0  0  0  0
   -1.5000   -2.5981    0.0000 C   0  0  0  0  0  0  0  0  0  0  0  0
   -0.7500   -3.8971    0.0000 C   0  0  0  0  0  0  0  0  0  0  0  0
    0.7500   -3.8971    0.0000 C   0  0  0  0  0  0  0  0  0  0  0  0
    1.5000   -2.5981    0.0000 C   0  0  0  0  0  0  0  0  0  0  0  0
    0.7500   -1.2990    0.0000 C   0  0  0  0  0  0  0  0  0  0  0  0
    1.5000    0.0000    0.0000 C   0  0  0  0  0  0  0  0  0  0  0  0
    0.7500    1.2990    0.0000 C   0  0  0  0  0  0  0  0  0  0  0  0
   -0.7500    1.2990    0.0000 C   0  0  0  0  0  0  0  0  0  0  0  0
   -1.5000    0.0000    0.0000 C   0  0  0  0  0  0  0  0  0  0  0  0
   -0.7500   -1.2990    0.0000 C   0  0  0  0  0  0  0  0  0  0  0  0
   -6.1317   -2.6836    0.0000 N   0  0  0  0  0  0  0  0  0  0  0  0
   -7.5583   -3.1471    0.0000 N   0  0  0  0  0  0  0  0  0  0  0  0
   -7.5583   -4.6471    0.0000 C   0  0  0  0  0  0  0  0  0  0  0  0
   -8.7718   -5.5288    0.0000 S   0  0  0  0  0  0  0  0  0  0  0  0
  -10.1421   -4.9187    0.0000 C   0  0  0  0  0  0  0  0  0  0  0  0
  -11.3556   -5.8004    0.0000 C   0  0  0  0  0  0  0  0  0  0  0  0
  -11.1988   -7.2921    0.0000 O   0  0  0  0  0  0  0  0  0  0  0  0
  -12.7260   -5.1903    0.0000 N   0  0  0  0  0  0  0  0  0  0  0  0
  -13.9395   -6.0719    0.0000 N   0  0  0  0  0  0  0  0  0  0  0  0
  -15.3098   -5.4618    0.0000 C   0  0  0  0  0  0  0  0  0  0  0  0
  -15.4666   -3.9701    0.0000 C   0  0  0  0  0  0  0  0  0  0  0  0
  -16.5233   -6.3435    0.0000 C   0  0  0  0  0  0  0  0  0  0  0  0
  -17.8936   -5.7334    0.0000 C   0  0  0  0  0  0  0  0  0  0  0  0
  -19.1072   -6.6151    0.0000 C   0  0  0  0  0  0  0  0  0  0  0  0
  -18.9504   -8.1069    0.0000 C   0  0  0  0  0  0  0  0  0  0  0  0
  -20.1639   -8.9885    0.0000 N   0  0  0  0  0  0  0  0  0  0  0  0
  -17.5801   -8.7170    0.0000 C   0  0  0  0  0  0  0  0  0  0  0  0
  -16.3665   -7.8353    0.0000 C   0  0  0  0  0  0  0  0  0  0  0  0
  1  2  2  0
  2  3  1  0
  3  4  1  0
  4  5  1  0
  5  6  1  0
  6  7  1  0
  7  8  1  0
  8  9  2  0
  9 10  1  0
 10 11  2  0
 11 12  1  0
 12 13  2  0
 13 14  1  0
 14 15  2  0
 15 16  1  0
 16 17  2  0
  5 18  2  0
 18 19  1  0
 19 20  2  0
 20 21  1  0
 21 22  1  0
 22 23  1  0
 23 24  2  0
 23 25  1  0
 25 26  1  0
 26 27  2  0
 27 28  1  0
 27 29  1  0
 29 30  2  0
 30 31  1  0
 31 32  2  0
 32 33  1  0
 32 34  1  0
 34 35  2  0
 20  4  1  0
 35 29  1  0
 17  8  1  0
 17 12  1  0
M  END
>  <Compound_ID>  (69) 
C59260843

>  <Active>  (69) 
0

>  <Smiles>  (69) 
C=CCn1c(CNc2cccc3ccccc23)nnc1SCC(=O)N/N=C(\C)c1ccc(N)cc1

>  <canonical_smi>  (69) 
C=CCn1c(CNc2cccc3ccccc23)nnc1SCC(=O)N/N=C(\C)c1ccc(N)cc1

>  <Set>  (69) 
G2 inactive

>  <Set_type>  (69) 
Test

>  <MW>  (69) 
485.62

>  <HBD>  (69) 
3

>  <HBA>  (69) 
6

>  <NRB>  (69) 
10

>  <NR>  (69) 
4

>  <NAR>  (69) 
4

>  <PSA>  (69) 
110.22

>  <Standard Type>  (69) 
nan

>  <Standard Relation>  (69) 
nan

>  <Standard Units>  (69) 
nan

>  <Standard Value>  (69) 
nan

>  <Assay ChEMBL ID>  (69) 
nan

>  <Assay Description>  (69) 
nan

>  <BAO Label>  (69) 
nan

$$$$

     RDKit          2D

 28 32  0  0  0  0  0  0  0  0999 V2000
    2.6401   -3.1891    0.0000 C   0  0  0  0  0  0  0  0  0  0  0  0
    1.2135   -2.7256    0.0000 N   0  0  0  0  0  0  0  0  0  0  0  0
    0.7500   -1.2990    0.0000 C   0  0  0  0  0  0  0  0  0  0  0  0
    1.5000    0.0000    0.0000 C   0  0  0  0  0  0  0  0  0  0  0  0
    0.7500    1.2990    0.0000 C   0  0  0  0  0  0  0  0  0  0  0  0
   -0.7500    1.2990    0.0000 C   0  0  0  0  0  0  0  0  0  0  0  0
   -1.5000    0.0000    0.0000 C   0  0  0  0  0  0  0  0  0  0  0  0
   -0.7500   -1.2990    0.0000 C   0  0  0  0  0  0  0  0  0  0  0  0
   -1.2135   -2.7256    0.0000 N   0  0  0  0  0  0  0  0  0  0  0  0
   -0.0000   -3.6073    0.0000 C   0  0  0  0  0  0  0  0  0  0  0  0
   -0.0000   -5.1073    0.0000 C   0  0  0  0  0  0  0  0  0  0  0  0
   -1.2990   -5.8573    0.0000 C   0  0  0  0  0  0  0  0  0  0  0  0
   -1.2990   -7.3573    0.0000 N   0  0  0  0  0  4  0  0  0  0  0  0
   -2.5981   -8.1073    0.0000 C   0  0  0  0  0  0  0  0  0  0  0  0
   -2.5981   -9.6073    0.0000 C   0  0  0  0  0  0  0  0  0  0  0  0
   -1.3846  -10.4890    0.0000 C   0  0  0  0  0  0  0  0  0  0  0  0
   -1.8481  -11.9156    0.0000 N   0  0  0  0  0  0  0  0  0  0  0  0
   -3.3481  -11.9156    0.0000 N   0  0  0  0  0  0  0  0  0  0  0  0
   -3.8116  -10.4890    0.0000 C   0  0  0  0  0  0  0  0  0  0  0  0
   -5.2382  -10.0255    0.0000 C   0  0  0  0  0  0  0  0  0  0  0  0
   -5.5501   -8.5582    0.0000 C   0  0  0  0  0  0  0  0  0  0  0  0
   -6.9766   -8.0947    0.0000 C   0  0  0  0  0  0  0  0  0  0  0  0
   -8.0914   -9.0984    0.0000 C   0  0  0  0  0  0  0  0  0  0  0  0
   -7.7795  -10.5656    0.0000 C   0  0  0  0  0  0  0  0  0  0  0  0
   -6.3529  -11.0291    0.0000 C   0  0  0  0  0  0  0  0  0  0  0  0
   -9.0785  -11.3156    0.0000 O   0  0  0  0  0  0  0  0  0  0  0  0
  -10.1932  -10.3119    0.0000 C   0  0  0  0  0  0  0  0  0  0  0  0
   -9.5831   -8.9416    0.0000 O   0  0  0  0  0  0  0  0  0  0  0  0
  1  2  1  0
  2  3  1  0
  3  4  2  0
  4  5  1  0
  5  6  2  0
  6  7  1  0
  7  8  2  0
  8  9  1  0
  9 10  1  0
 10 11  1  1
 11 12  1  0
 12 13  1  0
 13 14  1  0
 15 14  1  6
 15 16  1  0
 16 17  2  0
 17 18  1  0
 18 19  2  0
 19 20  1  0
 20 21  2  0
 21 22  1  0
 22 23  2  0
 23 24  1  0
 24 25  2  0
 24 26  1  0
 26 27  1  0
 27 28  1  0
 10  2  1  0
 19 15  1  0
 25 20  1  0
  8  3  1  0
 28 23  1  0
M  CHG  1  13   1
M  END
>  <Compound_ID>  (70) 
C39394187

>  <Active>  (70) 
0

>  <Smiles>  (70) 
CN1c2ccccc2N[C@@H]1CC[NH2+]C[C@@H]1C=NN=C1c1ccc2c(c1)OCO2

>  <canonical_smi>  (70) 
CN1c2ccccc2N[C@@H]1CC[NH2+]C[C@@H]1C=NN=C1c1ccc2c(c1)OCO2

>  <Set>  (70) 
G2 inactive

>  <Set_type>  (70) 
Test

>  <MW>  (70) 
378.46

>  <HBD>  (70) 
2

>  <HBA>  (70) 
4

>  <NRB>  (70) 
6

>  <NR>  (70) 
5

>  <NAR>  (70) 
2

>  <PSA>  (70) 
75.06

>  <Standard Type>  (70) 
nan

>  <Standard Relation>  (70) 
nan

>  <Standard Units>  (70) 
nan

>  <Standard Value>  (70) 
nan

>  <Assay ChEMBL ID>  (70) 
nan

>  <Assay Description>  (70) 
nan

>  <BAO Label>  (70) 
nan

$$$$

     RDKit          2D

 26 28  0  0  0  0  0  0  0  0999 V2000
    6.2361   -9.4895    0.0000 C   0  0  0  0  0  0  0  0  0  0  0  0
    7.1801   -8.3238    0.0000 C   0  0  0  0  0  0  0  0  0  0  0  0
    6.6425   -6.9234    0.0000 C   0  0  0  0  0  0  0  0  0  0  0  0
    7.5865   -5.7577    0.0000 N   0  0  0  0  0  0  0  0  0  0  0  0
    7.0490   -4.3574    0.0000 C   0  0  0  0  0  0  0  0  0  0  0  0
    5.5674   -4.1227    0.0000 C   0  0  0  0  0  0  0  0  0  0  0  0
    4.6234   -5.2884    0.0000 O   0  0  0  0  0  0  0  0  0  0  0  0
    5.0299   -2.7223    0.0000 C   0  0  0  0  0  0  0  0  0  0  0  0
    3.5483   -2.4877    0.0000 N   0  0  0  0  0  0  0  0  0  0  0  0
    2.4877   -3.5483    0.0000 C   0  0  0  0  0  0  0  0  0  0  0  0
    2.7223   -5.0299    0.0000 O   0  0  0  0  0  0  0  0  0  0  0  0
    1.1512   -2.8674    0.0000 N   0  0  0  0  0  0  0  0  0  0  0  0
    1.3858   -1.3858    0.0000 C   0  0  0  0  0  0  0  0  0  0  0  0
    1.9598    0.0000    0.0000 C   0  0  0  0  0  0  0  0  0  0  0  0
    1.3858    1.3858    0.0000 C   0  0  0  0  0  0  0  0  0  0  0  0
    0.0000    1.9598    0.0000 C   0  0  0  0  0  0  0  0  0  0  0  0
   -1.3858    1.3858    0.0000 C   0  0  0  0  0  0  0  0  0  0  0  0
   -1.9598    0.0000    0.0000 C   0  0  0  0  0  0  0  0  0  0  0  0
   -1.3858   -1.3858    0.0000 C   0  0  0  0  0  0  0  0  0  0  0  0
   -0.0000   -1.9598    0.0000 C   0  0  0  0  0  0  0  0  0  0  0  0
    2.8674   -1.1512    0.0000 C   0  0  0  0  0  0  0  0  0  0  0  0
    3.5483    0.1853    0.0000 O   0  0  0  0  0  0  0  0  0  0  0  0
    9.0680   -5.9924    0.0000 C   0  0  0  0  0  0  0  0  0  0  0  0
    9.6056   -7.3927    0.0000 C   0  0  0  0  0  0  0  0  0  0  0  0
   11.0871   -7.6274    0.0000 C   0  0  0  0  0  0  0  0  0  0  0  0
    8.6616   -8.5585    0.0000 O   0  0  0  0  0  0  0  0  0  0  0  0
  2  1  1  6
  2  3  1  0
  3  4  1  0
  4  5  1  0
  5  6  1  0
  6  7  1  1
  6  8  1  0
  8  9  1  0
  9 10  1  0
 10 11  2  0
 10 12  1  0
 12 13  1  0
 13 14  1  0
 14 15  1  0
 15 16  1  0
 16 17  1  0
 17 18  1  0
 18 19  1  0
 19 20  1  0
 13 21  1  0
 21 22  2  0
  4 23  1  0
 23 24  1  0
 24 25  1  6
 24 26  1  0
 26  2  1  0
 21  9  1  0
 20 13  1  0
M  END
>  <Compound_ID>  (71) 
C65170508

>  <Active>  (71) 
0

>  <Smiles>  (71) 
C[C@@H]1CN(C[C@@H](O)CN2C(=O)NC3(CCCCCCC3)C2=O)C[C@H](C)O1

>  <canonical_smi>  (71) 
C[C@H]1CN(C[C@@H](O)CN2C(=O)NC3(CCCCCCC3)C2=O)C[C@@H](C)O1

>  <Set>  (71) 
G2 inactive

>  <Set_type>  (71) 
Test

>  <MW>  (71) 
367.49

>  <HBD>  (71) 
2

>  <HBA>  (71) 
5

>  <NRB>  (71) 
4

>  <NR>  (71) 
3

>  <NAR>  (71) 
0

>  <PSA>  (71) 
82.11

>  <Standard Type>  (71) 
nan

>  <Standard Relation>  (71) 
nan

>  <Standard Units>  (71) 
nan

>  <Standard Value>  (71) 
nan

>  <Assay ChEMBL ID>  (71) 
nan

>  <Assay Description>  (71) 
nan

>  <BAO Label>  (71) 
nan

$$$$

     RDKit          2D

 32 35  0  0  0  0  0  0  0  0999 V2000
    1.5000   -7.7942    0.0000 C   0  0  0  0  0  0  0  0  0  0  0  0
    0.7500   -6.4952    0.0000 O   0  0  0  0  0  0  0  0  0  0  0  0
    1.5000   -5.1962    0.0000 C   0  0  0  0  0  0  0  0  0  0  0  0
    3.0000   -5.1962    0.0000 O   0  0  0  0  0  0  0  0  0  0  0  0
    0.7500   -3.8971    0.0000 C   0  0  0  0  0  0  0  0  0  0  0  0
   -0.7500   -3.8971    0.0000 C   0  0  0  0  0  0  0  0  0  0  0  0
   -1.5000   -5.1962    0.0000 N   0  0  0  0  0  0  0  0  0  0  0  0
   -1.5000   -2.5981    0.0000 N   0  0  0  0  0  0  0  0  0  0  0  0
   -3.0000   -2.5981    0.0000 C   0  0  0  0  0  0  0  0  0  0  0  0
   -3.7500   -1.2990    0.0000 C   0  0  0  0  0  0  0  0  0  0  0  0
   -5.2500   -1.2990    0.0000 C   0  0  0  0  0  0  0  0  0  0  0  0
   -6.0000   -2.5981    0.0000 C   0  0  0  0  0  0  0  0  0  0  0  0
   -7.5000   -2.5981    0.0000 C   0  0  0  0  0  0  0  0  0  0  0  0
   -5.2500   -3.8971    0.0000 C   0  0  0  0  0  0  0  0  0  0  0  0
   -3.7500   -3.8971    0.0000 C   0  0  0  0  0  0  0  0  0  0  0  0
   -0.7500   -1.2990    0.0000 C   0  0  0  0  0  0  0  0  0  0  0  0
    0.7500   -1.2990    0.0000 C   0  0  0  0  0  0  0  0  0  0  0  0
    1.5000    0.0000    0.0000 C   0  0  0  0  0  0  0  0  0  0  0  0
    3.0000    0.0000    0.0000 O   0  0  0  0  0  0  0  0  0  0  0  0
    0.7500    1.2990    0.0000 C   0  0  0  0  0  0  0  0  0  0  0  0
   -0.7500    1.2990    0.0000 C   0  0  0  0  0  0  0  0  0  0  0  0
   -1.5000    0.0000    0.0000 C   0  0  0  0  0  0  0  0  0  0  0  0
    1.5000   -2.5981    0.0000 C   0  0  0  0  0  0  0  0  0  0  0  0
    3.0000   -2.5981    0.0000 C   0  0  0  0  0  0  0  0  0  0  0  0
    3.7500   -3.8971    0.0000 C   0  0  0  0  0  0  0  0  0  0  0  0
    5.2500   -3.8971    0.0000 C   0  0  0  0  0  0  0  0  0  0  0  0
    6.0000   -2.5981    0.0000 C   0  0  0  0  0  0  0  0  0  0  0  0
    7.5000   -2.5981    0.0000 N   0  0  0  0  0  4  0  0  0  0  0  0
    8.2500   -1.2990    0.0000 O   0  0  0  0  0  0  0  0  0  0  0  0
    8.2500   -3.8971    0.0000 O   0  0  0  0  0  1  0  0  0  0  0  0
    5.2500   -1.2990    0.0000 C   0  0  0  0  0  0  0  0  0  0  0  0
    3.7500   -1.2990    0.0000 C   0  0  0  0  0  0  0  0  0  0  0  0
  1  2  1  0
  2  3  1  0
  3  4  2  0
  3  5  1  0
  5  6  2  0
  6  7  1  0
  6  8  1  0
  8  9  1  0
  9 10  2  0
 10 11  1  0
 11 12  2  0
 12 13  1  0
 12 14  1  0
 14 15  2  0
  8 16  1  0
 16 17  2  0
 17 18  1  0
 18 19  2  0
 18 20  1  0
 20 21  1  0
 21 22  1  0
 17 23  1  0
 23 24  1  6
 24 25  2  0
 25 26  1  0
 26 27  2  0
 27 28  1  0
 28 29  2  0
 28 30  1  0
 27 31  1  0
 31 32  2  0
 23  5  1  0
 32 24  1  0
 15  9  1  0
 22 16  1  0
M  CHG  2  28   1  30  -1
M  END
>  <Compound_ID>  (72) 
C15163162

>  <Active>  (72) 
0

>  <Smiles>  (72) 
COC(=O)C1=C(N)N(c2ccc(C)cc2)C2=C(C(=O)CCC2)[C@@H]1c1ccc([N+](=O)[O-])cc1

>  <canonical_smi>  (72) 
COC(=O)C1=C(N)N(c2ccc(C)cc2)C2=C(C(=O)CCC2)[C@@H]1c1ccc([N+](=O)[O-])cc1

>  <Set>  (72) 
G2 inactive

>  <Set_type>  (72) 
Test

>  <MW>  (72) 
433.46

>  <HBD>  (72) 
1

>  <HBA>  (72) 
7

>  <NRB>  (72) 
4

>  <NR>  (72) 
4

>  <NAR>  (72) 
2

>  <PSA>  (72) 
115.77

>  <Standard Type>  (72) 
nan

>  <Standard Relation>  (72) 
nan

>  <Standard Units>  (72) 
nan

>  <Standard Value>  (72) 
nan

>  <Assay ChEMBL ID>  (72) 
nan

>  <Assay Description>  (72) 
nan

>  <BAO Label>  (72) 
nan

$$$$

     RDKit          2D

 17 18  0  0  0  0  0  0  0  0999 V2000
    2.3886   -2.4414    0.0000 C   0  0  0  0  0  0  0  0  0  0  0  0
    2.6491   -0.9642    0.0000 C   0  0  0  0  0  0  0  0  0  0  0  0
    1.5000    0.0000    0.0000 C   0  0  0  0  0  0  0  0  0  0  0  0
    2.6491    0.9642    0.0000 C   0  0  0  0  0  0  0  0  0  0  0  0
    0.7500   -1.2990    0.0000 C   0  0  0  0  0  0  0  0  0  0  0  0
   -0.7500   -1.2990    0.0000 C   0  0  0  0  0  0  0  0  0  0  0  0
   -1.5000   -2.5981    0.0000 C   0  0  0  0  0  0  0  0  0  0  0  0
   -0.7500   -3.8971    0.0000 C   0  0  0  0  0  0  0  0  0  0  0  0
   -0.0000   -5.1962    0.0000 N   0  0  0  0  0  0  0  0  0  0  0  0
   -3.0000   -2.5981    0.0000 C   0  0  0  0  0  0  0  0  0  0  0  0
   -3.7500   -3.8971    0.0000 N   0  0  0  0  0  0  0  0  0  0  0  0
   -3.7500   -1.2990    0.0000 S   0  0  0  0  0  0  0  0  0  0  0  0
   -3.0000    0.0000    0.0000 C   0  0  0  0  0  0  0  0  0  0  0  0
   -3.7500    1.2990    0.0000 S   0  0  0  0  0  0  0  0  0  0  0  0
   -1.5000    0.0000    0.0000 C   0  0  0  0  0  0  0  0  0  0  0  0
   -0.7500    1.2990    0.0000 C   0  0  0  0  0  0  0  0  0  0  0  0
    0.7500    1.2990    0.0000 O   0  0  0  0  0  0  0  0  0  0  0  0
  1  2  1  0
  2  3  1  0
  3  4  1  6
  3  5  1  0
  5  6  1  0
  6  7  1  0
  7  8  1  0
  8  9  3  0
  7 10  2  0
 10 11  1  0
 10 12  1  0
 12 13  1  0
 13 14  2  0
 13 15  1  0
 15 16  1  0
 16 17  1  0
 17  3  1  0
 15  6  2  0
M  END
>  <Compound_ID>  (73) 
C06499038

>  <Active>  (73) 
0

>  <Smiles>  (73) 
CC[C@@]1(C)Cc2c(C#N)c(N)sc(=S)c2CO1

>  <canonical_smi>  (73) 
CC[C@@]1(C)Cc2c(C#N)c(N)sc(=S)c2CO1

>  <Set>  (73) 
G2 inactive

>  <Set_type>  (73) 
Test

>  <MW>  (73) 
266.39

>  <HBD>  (73) 
1

>  <HBA>  (73) 
4

>  <NRB>  (73) 
1

>  <NR>  (73) 
2

>  <NAR>  (73) 
1

>  <PSA>  (73) 
59.04

>  <Standard Type>  (73) 
nan

>  <Standard Relation>  (73) 
nan

>  <Standard Units>  (73) 
nan

>  <Standard Value>  (73) 
nan

>  <Assay ChEMBL ID>  (73) 
nan

>  <Assay Description>  (73) 
nan

>  <BAO Label>  (73) 
nan

$$$$

     RDKit          2D

 22 25  0  0  0  0  0  0  0  0999 V2000
   -5.2019  -12.6348    0.0000 N   0  0  0  0  0  0  0  0  0  0  0  0
   -4.1982  -11.5201    0.0000 C   0  0  0  0  0  0  0  0  0  0  0  0
   -2.7064  -11.6769    0.0000 N   0  0  0  0  0  0  0  0  0  0  0  0
   -2.0963  -10.3066    0.0000 N   0  0  0  0  0  0  0  0  0  0  0  0
   -3.2110   -9.3029    0.0000 C   0  0  0  0  0  0  0  0  0  0  0  0
   -3.0542   -7.8111    0.0000 S   0  0  0  0  0  0  0  0  0  0  0  0
   -1.6839   -7.2010    0.0000 C   0  0  0  0  0  0  0  0  0  0  0  0
   -1.5271   -5.7092    0.0000 C   0  0  0  0  0  0  0  0  0  0  0  0
   -2.7406   -4.8275    0.0000 N   0  0  0  0  0  0  0  0  0  0  0  0
   -2.5838   -3.3357    0.0000 C   0  0  0  0  0  0  0  0  0  0  0  0
   -3.7974   -2.4540    0.0000 N   0  0  0  0  0  0  0  0  0  0  0  0
   -1.2135   -2.7256    0.0000 C   0  0  0  0  0  0  0  0  0  0  0  0
   -0.7500   -1.2990    0.0000 C   0  0  0  0  0  0  0  0  0  0  0  0
    0.7500   -1.2990    0.0000 C   0  0  0  0  0  0  0  0  0  0  0  0
    1.2135   -2.7256    0.0000 S   0  0  0  0  0  0  0  0  0  0  0  0
   -0.0000   -3.6073    0.0000 C   0  0  0  0  0  0  0  0  0  0  0  0
   -0.1568   -5.0991    0.0000 N   0  0  0  0  0  0  0  0  0  0  0  0
    1.5000    0.0000    0.0000 C   0  0  0  0  0  0  0  0  0  0  0  0
    0.7500    1.2990    0.0000 C   0  0  0  0  0  0  0  0  0  0  0  0
   -0.7500    1.2990    0.0000 C   0  0  0  0  0  0  0  0  0  0  0  0
   -1.5000    0.0000    0.0000 C   0  0  0  0  0  0  0  0  0  0  0  0
   -4.5101  -10.0529    0.0000 S   0  0  0  0  0  0  0  0  0  0  0  0
  1  2  1  0
  2  3  2  0
  3  4  1  0
  4  5  2  0
  5  6  1  0
  6  7  1  0
  7  8  1  0
  8  9  2  0
  9 10  1  0
 10 11  1  0
 10 12  2  0
 12 13  1  0
 13 14  2  0
 14 15  1  0
 15 16  1  0
 16 17  2  0
 14 18  1  0
 18 19  1  0
 19 20  1  0
 20 21  1  0
  5 22  1  0
 22  2  1  0
 17  8  1  0
 16 12  1  0
 21 13  1  0
M  END
>  <Compound_ID>  (74) 
C18266707

>  <Active>  (74) 
0

>  <Smiles>  (74) 
Nc1nnc(SCc2nc(N)c3c4c(sc3n2)CCCC4)s1

>  <canonical_smi>  (74) 
Nc1nnc(SCc2nc(N)c3c4c(sc3n2)CCCC4)s1

>  <Set>  (74) 
G2 inactive

>  <Set_type>  (74) 
Test

>  <MW>  (74) 
350.5

>  <HBD>  (74) 
2

>  <HBA>  (74) 
7

>  <NRB>  (74) 
3

>  <NR>  (74) 
4

>  <NAR>  (74) 
3

>  <PSA>  (74) 
103.6

>  <Standard Type>  (74) 
nan

>  <Standard Relation>  (74) 
nan

>  <Standard Units>  (74) 
nan

>  <Standard Value>  (74) 
nan

>  <Assay ChEMBL ID>  (74) 
nan

>  <Assay Description>  (74) 
nan

>  <BAO Label>  (74) 
nan

$$$$

     RDKit          2D

 17 17  0  0  0  0  0  0  0  0999 V2000
    5.0260   -2.7990    0.0000 C   0  0  0  0  0  0  0  0  0  0  0  0
    5.0260   -1.2990    0.0000 C   0  0  0  0  0  0  0  0  0  0  0  0
    5.0260    0.2010    0.0000 C   0  0  0  0  0  0  0  0  0  0  0  0
    6.5260   -1.2990    0.0000 C   0  0  0  0  0  0  0  0  0  0  0  0
    3.5260   -1.2990    0.0000 C   0  0  0  0  0  0  0  0  0  0  0  0
    2.7760   -2.5981    0.0000 N   0  0  0  0  0  4  0  0  0  0  0  0
    2.7760    0.0000    0.0000 C   0  0  0  0  0  0  0  0  0  0  0  0
    3.5260    1.2990    0.0000 O   0  0  0  0  0  0  0  0  0  0  0  0
    1.2760    0.0000    0.0000 N   0  0  0  0  0  0  0  0  0  0  0  0
    0.3943    1.2135    0.0000 C   0  0  0  0  0  0  0  0  0  0  0  0
   -1.0323    0.7500    0.0000 C   0  0  0  0  0  0  0  0  0  0  0  0
   -1.0323   -0.7500    0.0000 C   0  0  0  0  0  0  0  0  0  0  0  0
   -1.3442   -2.2172    0.0000 C   0  0  0  0  0  0  0  0  0  0  0  0
   -2.5241   -0.5932    0.0000 C   0  0  0  0  0  0  0  0  0  0  0  0
   -3.4057   -1.8067    0.0000 O   0  0  0  0  0  0  0  0  0  0  0  0
   -3.1342    0.7771    0.0000 O   0  0  0  0  0  1  0  0  0  0  0  0
    0.3943   -1.2135    0.0000 C   0  0  0  0  0  0  0  0  0  0  0  0
  1  2  1  0
  2  3  1  0
  2  4  1  0
  2  5  1  0
  5  6  1  6
  5  7  1  0
  7  8  2  0
  7  9  1  0
  9 10  1  0
 10 11  1  0
 11 12  1  0
 12 13  1  6
 12 14  1  0
 14 15  2  0
 14 16  1  0
 12 17  1  0
 17  9  1  0
M  CHG  2   6   1  16  -1
M  END
>  <Compound_ID>  (75) 
C62916338

>  <Active>  (75) 
0

>  <Smiles>  (75) 
CC(C)(C)[C@H]([NH3+])C(=O)N1CC[C@](C)(C(=O)[O-])C1

>  <canonical_smi>  (75) 
CC(C)(C)[C@H]([NH3+])C(=O)N1CC[C@](C)(C(=O)[O-])C1

>  <Set>  (75) 
G2 inactive

>  <Set_type>  (75) 
Test

>  <MW>  (75) 
242.32

>  <HBD>  (75) 
1

>  <HBA>  (75) 
3

>  <NRB>  (75) 
2

>  <NR>  (75) 
1

>  <NAR>  (75) 
0

>  <PSA>  (75) 
88.08

>  <Standard Type>  (75) 
nan

>  <Standard Relation>  (75) 
nan

>  <Standard Units>  (75) 
nan

>  <Standard Value>  (75) 
nan

>  <Assay ChEMBL ID>  (75) 
nan

>  <Assay Description>  (75) 
nan

>  <BAO Label>  (75) 
nan

$$$$

     RDKit          2D

 30 33  0  0  0  0  0  0  0  0999 V2000
   -2.6401   -3.1891    0.0000 C   0  0  0  0  0  0  0  0  0  0  0  0
   -1.2135   -2.7256    0.0000 C   0  0  0  0  0  0  0  0  0  0  0  0
   -0.0000   -3.6073    0.0000 N   0  0  0  0  0  0  0  0  0  0  0  0
    1.2135   -2.7256    0.0000 N   0  0  0  0  0  0  0  0  0  0  0  0
    0.7500   -1.2990    0.0000 C   0  0  0  0  0  0  0  0  0  0  0  0
    1.5000    0.0000    0.0000 C   0  0  0  0  0  0  0  0  0  0  0  0
    0.7500    1.2990    0.0000 N   0  0  0  0  0  0  0  0  0  0  0  0
   -0.7500    1.2990    0.0000 C   0  0  0  0  0  0  0  0  0  0  0  0
   -1.5000    2.5981    0.0000 C   0  0  0  0  0  0  0  0  0  0  0  0
   -0.7500    3.8971    0.0000 C   0  0  0  0  0  0  0  0  0  0  0  0
   -1.5000    5.1962    0.0000 N   0  0  0  0  0  0  0  0  0  0  0  0
   -3.0000    5.1962    0.0000 C   0  0  0  0  0  0  0  0  0  0  0  0
   -3.7500    3.8971    0.0000 C   0  0  0  0  0  0  0  0  0  0  0  0
   -5.2500    3.8971    0.0000 O   0  0  0  0  0  0  0  0  0  0  0  0
   -6.0000    5.1962    0.0000 C   0  0  0  0  0  0  0  0  0  0  0  0
   -7.5000    5.1962    0.0000 C   0  0  0  0  0  0  0  0  0  0  0  0
   -8.2500    3.8971    0.0000 N   0  0  0  0  0  4  0  0  0  0  0  0
   -8.2500    6.4952    0.0000 C   0  0  0  0  0  0  0  0  0  0  0  0
   -9.7500    6.4952    0.0000 C   0  0  0  0  0  0  0  0  0  0  0  0
  -10.5000    7.7942    0.0000 C   0  0  0  0  0  0  0  0  0  0  0  0
  -12.0000    7.7942    0.0000 C   0  0  0  0  0  0  0  0  0  0  0  0
  -12.7500    6.4952    0.0000 C   0  0  0  0  0  0  0  0  0  0  0  0
  -14.2500    6.4952    0.0000 F   0  0  0  0  0  0  0  0  0  0  0  0
  -12.0000    5.1962    0.0000 C   0  0  0  0  0  0  0  0  0  0  0  0
  -12.7500    3.8971    0.0000 F   0  0  0  0  0  0  0  0  0  0  0  0
  -10.5000    5.1962    0.0000 C   0  0  0  0  0  0  0  0  0  0  0  0
   -9.7500    3.8971    0.0000 F   0  0  0  0  0  0  0  0  0  0  0  0
   -3.0000    2.5981    0.0000 C   0  0  0  0  0  0  0  0  0  0  0  0
   -1.5000    0.0000    0.0000 C   0  0  0  0  0  0  0  0  0  0  0  0
   -0.7500   -1.2990    0.0000 C   0  0  0  0  0  0  0  0  0  0  0  0
  1  2  1  0
  2  3  2  0
  3  4  1  0
  4  5  1  0
  5  6  2  0
  6  7  1  0
  7  8  2  0
  8  9  1  0
  9 10  2  0
 10 11  1  0
 11 12  2  0
 12 13  1  0
 13 14  1  0
 14 15  1  0
 15 16  1  0
 16 17  1  1
 16 18  1  0
 18 19  1  0
 19 20  2  0
 20 21  1  0
 21 22  2  0
 22 23  1  0
 22 24  1  0
 24 25  1  0
 24 26  2  0
 26 27  1  0
 13 28  2  0
  8 29  1  0
 29 30  2  0
 30  2  1  0
 30  5  1  0
 28  9  1  0
 26 19  1  0
M  CHG  1  17   1
M  END
>  <Compound_ID>  (76) 
C45290259

>  <Active>  (76) 
0

>  <Smiles>  (76) 
Cc1n[nH]c2cnc(-c3cncc(OC[C@@H]([NH3+])Cc4ccc(F)c(F)c4F)c3)cc12

>  <canonical_smi>  (76) 
Cc1n[nH]c2cnc(-c3cncc(OC[C@@H]([NH3+])Cc4ccc(F)c(F)c4F)c3)cc12

>  <Set>  (76) 
G2 inactive

>  <Set_type>  (76) 
Test

>  <MW>  (76) 
414.41

>  <HBD>  (76) 
2

>  <HBA>  (76) 
4

>  <NRB>  (76) 
6

>  <NR>  (76) 
4

>  <NAR>  (76) 
4

>  <PSA>  (76) 
91.33

>  <Standard Type>  (76) 
nan

>  <Standard Relation>  (76) 
nan

>  <Standard Units>  (76) 
nan

>  <Standard Value>  (76) 
nan

>  <Assay ChEMBL ID>  (76) 
nan

>  <Assay Description>  (76) 
nan

>  <BAO Label>  (76) 
nan

$$$$

     RDKit          2D

 31 35  0  0  0  0  0  0  0  0999 V2000
    2.7760    0.0000    0.0000 C   0  0  0  0  0  0  0  0  0  0  0  0
    1.2760    0.0000    0.0000 C   0  0  0  0  0  0  0  0  0  0  0  0
    0.3943    1.2135    0.0000 O   0  0  0  0  0  0  0  0  0  0  0  0
   -1.0323    0.7500    0.0000 C   0  0  0  0  0  0  0  0  0  0  0  0
   -2.3313    1.5000    0.0000 C   0  0  0  0  0  0  0  0  0  0  0  0
   -2.3313    3.0000    0.0000 C   0  0  0  0  0  0  0  0  0  0  0  0
   -3.6304    0.7500    0.0000 C   0  0  0  0  0  0  0  0  0  0  0  0
   -4.9294    1.5000    0.0000 O   0  0  0  0  0  0  0  0  0  0  0  0
   -6.2284    0.7500    0.0000 C   0  0  0  0  0  0  0  0  0  0  0  0
   -7.5275    1.5000    0.0000 O   0  0  0  0  0  0  0  0  0  0  0  0
   -6.2284   -0.7500    0.0000 C   0  0  0  0  0  0  0  0  0  0  0  0
   -7.5275   -1.5000    0.0000 C   0  0  0  0  0  0  0  0  0  0  0  0
   -8.8265   -0.7500    0.0000 C   0  0  0  0  0  0  0  0  0  0  0  0
  -10.1256   -1.5000    0.0000 C   0  0  0  0  0  0  0  0  0  0  0  0
  -10.1256   -3.0000    0.0000 O   0  0  0  0  0  0  0  0  0  0  0  0
  -11.4246   -0.7500    0.0000 N   0  0  0  0  0  0  0  0  0  0  0  0
  -11.4246    0.7500    0.0000 C   0  0  0  0  0  0  0  0  0  0  0  0
  -12.7236    1.5000    0.0000 C   0  0  0  0  0  0  0  0  0  0  0  0
  -14.0227    0.7500    0.0000 C   0  0  0  0  0  0  0  0  0  0  0  0
  -15.4493    1.2135    0.0000 N   0  0  0  0  0  0  0  0  0  0  0  0
  -16.3309    0.0000    0.0000 C   0  0  0  0  0  0  0  0  0  0  0  0
  -15.4493   -1.2135    0.0000 N   0  0  0  0  0  0  0  0  0  0  0  0
  -14.0227   -0.7500    0.0000 C   0  0  0  0  0  0  0  0  0  0  0  0
  -12.7236   -1.5000    0.0000 C   0  0  0  0  0  0  0  0  0  0  0  0
   -4.9294   -1.5000    0.0000 C   0  0  0  0  0  0  0  0  0  0  0  0
   -4.9294   -3.0000    0.0000 C   0  0  0  0  0  0  0  0  0  0  0  0
   -3.6304   -0.7500    0.0000 C   0  0  0  0  0  0  0  0  0  0  0  0
   -2.3313   -1.5000    0.0000 C   0  0  0  0  0  0  0  0  0  0  0  0
   -1.0323   -0.7500    0.0000 C   0  0  0  0  0  0  0  0  0  0  0  0
    0.3943   -1.2135    0.0000 C   0  0  0  0  0  0  0  0  0  0  0  0
    0.8578   -2.6401    0.0000 C   0  0  0  0  0  0  0  0  0  0  0  0
  1  2  1  0
  2  3  1  0
  3  4  1  0
  4  5  2  0
  5  6  1  0
  5  7  1  0
  7  8  1  0
  8  9  1  0
  9 10  2  0
  9 11  1  0
 11 12  1  0
 12 13  1  0
 13 14  1  0
 14 15  2  0
 14 16  1  0
 16 17  1  0
 17 18  1  0
 18 19  1  0
 19 20  2  0
 20 21  1  0
 21 22  2  0
 22 23  1  0
 23 24  1  1
 11 25  2  0
 25 26  1  0
 25 27  1  0
 27 28  1  0
 28 29  2  0
 29 30  1  0
 30 31  1  0
 30  2  2  0
 29  4  1  0
 27  7  2  0
 24 16  1  0
 23 19  1  0
M  END
>  <Compound_ID>  (77) 
C39272664

>  <Active>  (77) 
0

>  <Smiles>  (77) 
Cc1oc2c(C)c3oc(=O)c(CCC(=O)N4CCC5=NC=N[C@@H]5C4)c(C)c3cc2c1C

>  <canonical_smi>  (77) 
Cc1oc2c(C)c3oc(=O)c(CCC(=O)N4CCC5=NC=N[C@@H]5C4)c(C)c3cc2c1C

>  <Set>  (77) 
G2 inactive

>  <Set_type>  (77) 
Test

>  <MW>  (77) 
419.48

>  <HBD>  (77) 
0

>  <HBA>  (77) 
4

>  <NRB>  (77) 
3

>  <NR>  (77) 
5

>  <NAR>  (77) 
3

>  <PSA>  (77) 
88.38

>  <Standard Type>  (77) 
nan

>  <Standard Relation>  (77) 
nan

>  <Standard Units>  (77) 
nan

>  <Standard Value>  (77) 
nan

>  <Assay ChEMBL ID>  (77) 
nan

>  <Assay Description>  (77) 
nan

>  <BAO Label>  (77) 
nan

$$$$

     RDKit          2D

 27 30  0  0  0  0  0  0  0  0999 V2000
   -4.9294   -1.5000    0.0000 C   0  0  0  0  0  0  0  0  0  0  0  0
   -3.6304   -0.7500    0.0000 C   0  0  0  0  0  0  0  0  0  0  0  0
   -3.6304    0.7500    0.0000 C   0  0  0  0  0  0  0  0  0  0  0  0
   -2.3313    1.5000    0.0000 C   0  0  0  0  0  0  0  0  0  0  0  0
   -2.3313    3.0000    0.0000 C   0  0  0  0  0  0  0  0  0  0  0  0
   -1.0323    0.7500    0.0000 N   0  0  0  0  0  0  0  0  0  0  0  0
    0.3943    1.2135    0.0000 C   0  0  0  0  0  0  0  0  0  0  0  0
    0.8578    2.6401    0.0000 S   0  0  0  0  0  0  0  0  0  0  0  0
    2.3250    2.9520    0.0000 C   0  0  0  0  0  0  0  0  0  0  0  0
    2.9352    4.3223    0.0000 C   0  0  0  0  0  0  0  0  0  0  0  0
    4.4269    4.1655    0.0000 C   0  0  0  0  0  0  0  0  0  0  0  0
    5.4306    5.2802    0.0000 O   0  0  0  0  0  0  0  0  0  0  0  0
    4.7388    2.6983    0.0000 N   0  0  0  0  0  0  0  0  0  0  0  0
    6.1091    2.0882    0.0000 C   0  0  0  0  0  0  0  0  0  0  0  0
    6.2659    0.5964    0.0000 C   0  0  0  0  0  0  0  0  0  0  0  0
    7.6362   -0.0137    0.0000 C   0  0  0  0  0  0  0  0  0  0  0  0
    8.8498    0.8680    0.0000 C   0  0  0  0  0  0  0  0  0  0  0  0
   10.2201    0.2579    0.0000 Cl  0  0  0  0  0  0  0  0  0  0  0  0
    8.6930    2.3597    0.0000 C   0  0  0  0  0  0  0  0  0  0  0  0
    9.9065    3.2414    0.0000 Cl  0  0  0  0  0  0  0  0  0  0  0  0
    7.3226    2.9699    0.0000 C   0  0  0  0  0  0  0  0  0  0  0  0
    3.4398    1.9483    0.0000 C   0  0  0  0  0  0  0  0  0  0  0  0
    3.2830    0.4565    0.0000 O   0  0  0  0  0  0  0  0  0  0  0  0
    1.2760    0.0000    0.0000 N   0  0  0  0  0  0  0  0  0  0  0  0
    0.3943   -1.2135    0.0000 N   0  0  0  0  0  0  0  0  0  0  0  0
   -1.0323   -0.7500    0.0000 C   0  0  0  0  0  0  0  0  0  0  0  0
   -2.3313   -1.5000    0.0000 N   0  0  0  0  0  0  0  0  0  0  0  0
  1  2  1  0
  2  3  1  0
  3  4  2  0
  4  5  1  0
  4  6  1  0
  6  7  1  0
  7  8  1  0
  9  8  1  6
  9 10  1  0
 10 11  1  0
 11 12  2  0
 11 13  1  0
 13 14  1  0
 14 15  2  0
 15 16  1  0
 16 17  2  0
 17 18  1  0
 17 19  1  0
 19 20  1  0
 19 21  2  0
 13 22  1  0
 22 23  2  0
  7 24  2  0
 24 25  1  0
 25 26  2  0
 26 27  1  0
 27  2  2  0
 26  6  1  0
 22  9  1  0
 21 14  1  0
M  END
>  <Compound_ID>  (78) 
C20799432

>  <Active>  (78) 
0

>  <Smiles>  (78) 
Cc1cc(C)n2c(S[C@@H]3CC(=O)N(c4ccc(Cl)c(Cl)c4)C3=O)nnc2n1

>  <canonical_smi>  (78) 
Cc1cc(C)n2c(S[C@@H]3CC(=O)N(c4ccc(Cl)c(Cl)c4)C3=O)nnc2n1

>  <Set>  (78) 
G2 inactive

>  <Set_type>  (78) 
Test

>  <MW>  (78) 
422.3

>  <HBD>  (78) 
0

>  <HBA>  (78) 
6

>  <NRB>  (78) 
3

>  <NR>  (78) 
4

>  <NAR>  (78) 
3

>  <PSA>  (78) 
80.46

>  <Standard Type>  (78) 
nan

>  <Standard Relation>  (78) 
nan

>  <Standard Units>  (78) 
nan

>  <Standard Value>  (78) 
nan

>  <Assay ChEMBL ID>  (78) 
nan

>  <Assay Description>  (78) 
nan

>  <BAO Label>  (78) 
nan

$$$$
