
     RDKit          2D

 23 26  0  0  0  0  0  0  0  0999 V2000
   -7.8175    0.9250    0.0000 N   0  0  0  0  0  0  0  0  0  0  0  0
   -6.4268    0.3631    0.0000 C   0  0  0  0  0  0  0  0  0  0  0  0
   -7.2216   -0.9090    0.0000 C   0  0  0  0  0  0  0  0  0  0  0  0
   -8.7207   -0.8566    0.0000 C   0  0  0  0  0  0  0  0  0  0  0  0
   -9.5156   -2.1287    0.0000 C   0  0  0  0  0  0  0  0  0  0  0  0
   -8.8114   -3.4531    0.0000 C   0  0  0  0  0  0  0  0  0  0  0  0
   -9.6063   -4.7252    0.0000 Cl  0  0  0  0  0  0  0  0  0  0  0  0
   -7.3123   -3.5054    0.0000 C   0  0  0  0  0  0  0  0  0  0  0  0
   -6.5174   -2.2334    0.0000 C   0  0  0  0  0  0  0  0  0  0  0  0
   -5.3120   -0.6406    0.0000 C   0  0  0  0  0  0  0  0  0  0  0  0
   -3.8855   -0.1771    0.0000 C   0  0  0  0  0  0  0  0  0  0  0  0
   -3.5736    1.2902    0.0000 N   0  0  0  0  0  0  0  0  0  0  0  0
   -2.1470    1.7537    0.0000 C   0  0  0  0  0  0  0  0  0  0  0  0
   -1.8351    3.2209    0.0000 N   0  0  0  0  0  0  0  0  0  0  0  0
   -0.4086    3.6844    0.0000 C   0  0  0  0  0  0  0  0  0  0  0  0
    0.7062    2.6807    0.0000 N   0  0  0  0  0  0  0  0  0  0  0  0
    0.3943    1.2135    0.0000 C   0  0  0  0  0  0  0  0  0  0  0  0
    1.2760    0.0000    0.0000 N   0  0  0  0  0  0  0  0  0  0  0  0
    0.3943   -1.2135    0.0000 C   0  0  0  0  0  0  0  0  0  0  0  0
   -1.0323   -0.7500    0.0000 N   0  0  0  0  0  0  0  0  0  0  0  0
   -1.0323    0.7500    0.0000 C   0  0  0  0  0  0  0  0  0  0  0  0
   -4.6883    2.2939    0.0000 C   0  0  0  0  0  0  0  0  0  0  0  0
   -6.1149    1.8303    0.0000 C   0  0  0  0  0  0  0  0  0  0  0  0
  1  2  1  0
  2  3  1  0
  3  4  2  0
  4  5  1  0
  5  6  2  0
  6  7  1  0
  6  8  1  0
  8  9  2  0
  2 10  1  0
 10 11  1  0
 11 12  1  0
 12 13  1  0
 13 14  2  0
 14 15  1  0
 15 16  2  0
 16 17  1  0
 17 18  1  0
 18 19  1  0
 19 20  2  0
 20 21  1  0
 12 22  1  0
 22 23  1  0
 23  2  1  0
  9  3  1  0
 21 13  1  0
 21 17  2  0
M  END
>  <Compound_ID>  (1) 
CHEMBL407504

>  <Active>  (1) 
1

>  <Smiles>  (1) 
NC1(c2ccc(Cl)cc2)CCN(c2ncnc3[nH]cnc23)CC1

>  <canonical_smi>  (1) 
NC1(c2ccc(Cl)cc2)CCN(c2ncnc3[nH]cnc23)CC1

>  <Set>  (1) 
G1 active

>  <Set_type>  (1) 
G1

>  <MW>  (1) 
328.81

>  <HBD>  (1) 
2

>  <HBA>  (1) 
5

>  <NRB>  (1) 
2

>  <NR>  (1) 
4

>  <NAR>  (1) 
3

>  <PSA>  (1) 
83.72

>  <Standard Type>  (1) 
nan

>  <Standard Relation>  (1) 
nan

>  <Standard Units>  (1) 
nan

>  <Standard Value>  (1) 
nan

>  <Assay ChEMBL ID>  (1) 
nan

>  <Assay Description>  (1) 
nan

>  <BAO Label>  (1) 
nan

>  <bits>  (1) 
<rdkit.DataStructs.cDataStructs.ExplicitBitVect object at 0x000001A323074270>

>  <Group>  (1) 
G2

$$$$

     RDKit          2D

 26 29  0  0  0  0  0  0  0  0999 V2000
    5.2500   -1.2990    0.0000 N   0  0  0  0  0  0  0  0  0  0  0  0
    3.7500   -1.2990    0.0000 C   0  0  0  0  0  0  0  0  0  0  0  0
    3.0000   -2.5981    0.0000 O   0  0  0  0  0  0  0  0  0  0  0  0
    3.0000    0.0000    0.0000 N   0  0  0  0  0  0  0  0  0  0  0  0
    1.5000    0.0000    0.0000 C   0  0  0  0  0  0  0  0  0  0  0  0
    0.7500   -1.2990    0.0000 C   0  0  0  0  0  0  0  0  0  0  0  0
   -0.7500   -1.2990    0.0000 C   0  0  0  0  0  0  0  0  0  0  0  0
   -1.5000    0.0000    0.0000 C   0  0  0  0  0  0  0  0  0  0  0  0
   -0.7500    1.2990    0.0000 C   0  0  0  0  0  0  0  0  0  0  0  0
    0.7500    1.2990    0.0000 C   0  0  0  0  0  0  0  0  0  0  0  0
   -1.7537    2.4138    0.0000 C   0  0  0  0  0  0  0  0  0  0  0  0
   -1.4418    3.8810    0.0000 C   0  0  0  0  0  0  0  0  0  0  0  0
   -2.5565    4.8847    0.0000 C   0  0  0  0  0  0  0  0  0  0  0  0
   -4.0238    4.5728    0.0000 C   0  0  0  0  0  0  0  0  0  0  0  0
   -4.7738    5.8718    0.0000 C   0  0  0  0  0  0  0  0  0  0  0  0
   -6.2655    6.0286    0.0000 C   0  0  0  0  0  0  0  0  0  0  0  0
   -6.8757    7.3990    0.0000 C   0  0  0  0  0  0  0  0  0  0  0  0
   -8.3674    7.5557    0.0000 C   0  0  0  0  0  0  0  0  0  0  0  0
   -9.2491    6.3422    0.0000 C   0  0  0  0  0  0  0  0  0  0  0  0
   -8.6390    4.9719    0.0000 N   0  0  0  0  0  0  0  0  0  0  0  0
   -7.1472    4.8151    0.0000 C   0  0  0  0  0  0  0  0  0  0  0  0
   -3.7701    6.9866    0.0000 C   0  0  0  0  0  0  0  0  0  0  0  0
   -2.3998    6.3765    0.0000 N   0  0  0  0  0  0  0  0  0  0  0  0
   -3.1240    1.8037    0.0000 C   0  0  0  0  0  0  0  0  0  0  0  0
   -4.4231    2.5537    0.0000 O   0  0  0  0  0  0  0  0  0  0  0  0
   -2.9672    0.3119    0.0000 N   0  0  0  0  0  0  0  0  0  0  0  0
  1  2  1  0
  2  3  2  0
  2  4  1  0
  4  5  1  0
  5  6  2  0
  6  7  1  0
  7  8  2  0
  8  9  1  0
  9 10  2  0
  9 11  1  0
 11 12  2  0
 12 13  1  0
 13 14  2  0
 14 15  1  0
 15 16  1  0
 16 17  2  0
 17 18  1  0
 18 19  2  0
 19 20  1  0
 20 21  2  0
 15 22  2  0
 22 23  1  0
 11 24  1  0
 24 25  2  0
 24 26  1  0
 10  5  1  0
 23 13  1  0
 26  8  1  0
 21 16  1  0
M  END
>  <Compound_ID>  (2) 
CHEMBL375236

>  <Active>  (2) 
1

>  <Smiles>  (2) 
NC(=O)Nc1ccc2c(c1)/C(=C/c1cc(-c3cccnc3)c[nH]1)C(=O)N2

>  <canonical_smi>  (2) 
NC(=O)Nc1ccc2c(c1)/C(=C/c1cc(-c3cccnc3)c[nH]1)C(=O)N2

>  <Set>  (2) 
G1 active

>  <Set_type>  (2) 
G1

>  <MW>  (2) 
345.36

>  <HBD>  (2) 
4

>  <HBA>  (2) 
3

>  <NRB>  (2) 
3

>  <NR>  (2) 
4

>  <NAR>  (2) 
3

>  <PSA>  (2) 
112.9

>  <Standard Type>  (2) 
nan

>  <Standard Relation>  (2) 
nan

>  <Standard Units>  (2) 
nan

>  <Standard Value>  (2) 
nan

>  <Assay ChEMBL ID>  (2) 
nan

>  <Assay Description>  (2) 
nan

>  <BAO Label>  (2) 
nan

>  <bits>  (2) 
<rdkit.DataStructs.cDataStructs.ExplicitBitVect object at 0x000001A3230745F0>

>  <Group>  (2) 
G2

$$$$

     RDKit          2D

 31 34  0  0  0  0  0  0  0  0999 V2000
   -3.7548   -2.1855    0.0000 C   0  0  0  0  0  0  0  0  0  0  0  0
   -2.6401   -3.1891    0.0000 C   0  0  0  0  0  0  0  0  0  0  0  0
   -1.2135   -2.7256    0.0000 C   0  0  0  0  0  0  0  0  0  0  0  0
   -0.0000   -3.6073    0.0000 C   0  0  0  0  0  0  0  0  0  0  0  0
    0.0000   -5.1073    0.0000 O   0  0  0  0  0  0  0  0  0  0  0  0
    1.2135   -2.7256    0.0000 N   0  0  0  0  0  0  0  0  0  0  0  0
    0.7500   -1.2990    0.0000 C   0  0  0  0  0  0  0  0  0  0  0  0
    1.5000    0.0000    0.0000 C   0  0  0  0  0  0  0  0  0  0  0  0
    0.7500    1.2990    0.0000 C   0  0  0  0  0  0  0  0  0  0  0  0
   -0.7500    1.2990    0.0000 C   0  0  0  0  0  0  0  0  0  0  0  0
   -1.5000    2.5981    0.0000 N   0  0  0  0  0  0  0  0  0  0  0  0
   -0.7500    3.8971    0.0000 C   0  0  0  0  0  0  0  0  0  0  0  0
   -1.5000    5.1962    0.0000 N   0  0  0  0  0  0  0  0  0  0  0  0
    0.7500    3.8971    0.0000 O   0  0  0  0  0  0  0  0  0  0  0  0
   -1.5000    0.0000    0.0000 C   0  0  0  0  0  0  0  0  0  0  0  0
   -0.7500   -1.2990    0.0000 C   0  0  0  0  0  0  0  0  0  0  0  0
   -2.9520   -4.6564    0.0000 C   0  0  0  0  0  0  0  0  0  0  0  0
   -1.9483   -5.7711    0.0000 C   0  0  0  0  0  0  0  0  0  0  0  0
   -2.6983   -7.0701    0.0000 C   0  0  0  0  0  0  0  0  0  0  0  0
   -2.0882   -8.4404    0.0000 C   0  0  0  0  0  0  0  0  0  0  0  0
   -2.9699   -9.6540    0.0000 N   0  0  0  0  0  0  0  0  0  0  0  0
   -2.3597  -11.0243    0.0000 C   0  0  0  0  0  0  0  0  0  0  0  0
   -0.8680  -11.1811    0.0000 O   0  0  0  0  0  0  0  0  0  0  0  0
   -3.2414  -12.2378    0.0000 C   0  0  0  0  0  0  0  0  0  0  0  0
   -4.7332  -12.0810    0.0000 C   0  0  0  0  0  0  0  0  0  0  0  0
   -5.6149  -13.2945    0.0000 C   0  0  0  0  0  0  0  0  0  0  0  0
   -5.0048  -14.6649    0.0000 C   0  0  0  0  0  0  0  0  0  0  0  0
   -3.5130  -14.8217    0.0000 N   0  0  0  0  0  0  0  0  0  0  0  0
   -2.6313  -13.6081    0.0000 C   0  0  0  0  0  0  0  0  0  0  0  0
   -4.1655   -6.7583    0.0000 C   0  0  0  0  0  0  0  0  0  0  0  0
   -4.3223   -5.2665    0.0000 N   0  0  0  0  0  0  0  0  0  0  0  0
  1  2  1  0
  2  3  2  0
  3  4  1  0
  4  5  2  0
  4  6  1  0
  6  7  1  0
  7  8  2  0
  8  9  1  0
  9 10  2  0
 10 11  1  0
 11 12  1  0
 12 13  1  0
 12 14  2  0
 10 15  1  0
 15 16  2  0
  2 17  1  0
 17 18  2  0
 18 19  1  0
 19 20  1  0
 20 21  1  0
 21 22  1  0
 22 23  2  0
 22 24  1  0
 24 25  2  0
 25 26  1  0
 26 27  2  0
 27 28  1  0
 28 29  2  0
 19 30  2  0
 30 31  1  0
 16  3  1  0
 31 17  1  0
 16  7  1  0
 29 24  1  0
M  END
>  <Compound_ID>  (3) 
CHEMBL388739

>  <Active>  (3) 
1

>  <Smiles>  (3) 
C/C(=C1/C(=O)Nc2ccc(NC(N)=O)cc21)c1cc(CNC(=O)c2cccnc2)c[nH]1

>  <canonical_smi>  (3) 
C/C(=C1/C(=O)Nc2ccc(NC(N)=O)cc21)c1cc(CNC(=O)c2cccnc2)c[nH]1

>  <Set>  (3) 
G1 active

>  <Set_type>  (3) 
G1

>  <MW>  (3) 
416.44

>  <HBD>  (3) 
5

>  <HBA>  (3) 
4

>  <NRB>  (3) 
5

>  <NR>  (3) 
4

>  <NAR>  (3) 
3

>  <PSA>  (3) 
142.0

>  <Standard Type>  (3) 
nan

>  <Standard Relation>  (3) 
nan

>  <Standard Units>  (3) 
nan

>  <Standard Value>  (3) 
nan

>  <Assay ChEMBL ID>  (3) 
nan

>  <Assay Description>  (3) 
nan

>  <BAO Label>  (3) 
nan

>  <bits>  (3) 
<rdkit.DataStructs.cDataStructs.ExplicitBitVect object at 0x000001A3230746D0>

>  <Group>  (3) 
G2

$$$$

     RDKit          2D

 37 40  0  0  0  0  0  0  0  0999 V2000
   13.5574    8.6664    0.0000 C   0  0  0  0  0  0  0  0  0  0  0  0
   12.0741    8.8900    0.0000 N   0  0  0  0  0  0  0  0  0  0  0  0
   11.5261   10.2863    0.0000 C   0  0  0  0  0  0  0  0  0  0  0  0
   11.1389    7.7172    0.0000 C   0  0  0  0  0  0  0  0  0  0  0  0
   11.6869    6.3209    0.0000 C   0  0  0  0  0  0  0  0  0  0  0  0
   10.7517    5.1482    0.0000 C   0  0  0  0  0  0  0  0  0  0  0  0
    9.2684    5.3718    0.0000 C   0  0  0  0  0  0  0  0  0  0  0  0
    8.3332    4.1990    0.0000 O   0  0  0  0  0  0  0  0  0  0  0  0
    8.7204    6.7681    0.0000 C   0  0  0  0  0  0  0  0  0  0  0  0
    7.2372    6.9916    0.0000 C   0  0  0  0  0  0  0  0  0  0  0  0
    6.6892    8.3879    0.0000 O   0  0  0  0  0  0  0  0  0  0  0  0
    6.3019    5.8189    0.0000 C   0  0  0  0  0  0  0  0  0  0  0  0
    4.8187    6.0424    0.0000 C   0  0  0  0  0  0  0  0  0  0  0  0
    3.8835    4.8697    0.0000 C   0  0  0  0  0  0  0  0  0  0  0  0
    4.4315    3.4734    0.0000 C   0  0  0  0  0  0  0  0  0  0  0  0
    3.4962    2.3006    0.0000 C   0  0  0  0  0  0  0  0  0  0  0  0
    4.0442    0.9043    0.0000 O   0  0  0  0  0  0  0  0  0  0  0  0
    2.0130    2.5242    0.0000 N   0  0  0  0  0  0  0  0  0  0  0  0
    1.0777    1.3515    0.0000 C   0  0  0  0  0  0  0  0  0  0  0  0
    1.7286    0.0000    0.0000 C   0  0  0  0  0  0  0  0  0  0  0  0
    1.0777   -1.3515    0.0000 C   0  0  0  0  0  0  0  0  0  0  0  0
   -0.3846   -1.6852    0.0000 C   0  0  0  0  0  0  0  0  0  0  0  0
   -1.5574   -0.7500    0.0000 N   0  0  0  0  0  0  0  0  0  0  0  0
   -1.5574    0.7500    0.0000 C   0  0  0  0  0  0  0  0  0  0  0  0
   -0.3846    1.6852    0.0000 C   0  0  0  0  0  0  0  0  0  0  0  0
   -0.7184    3.1476    0.0000 N   0  0  0  0  0  0  0  0  0  0  0  0
   -2.1518    3.5898    0.0000 C   0  0  0  0  0  0  0  0  0  0  0  0
   -3.2514    2.5695    0.0000 O   0  0  0  0  0  0  0  0  0  0  0  0
   -2.4856    5.0522    0.0000 C   0  0  0  0  0  0  0  0  0  0  0  0
   -1.3860    6.0724    0.0000 C   0  0  0  0  0  0  0  0  0  0  0  0
   -1.7198    7.5348    0.0000 C   0  0  0  0  0  0  0  0  0  0  0  0
   -3.1531    7.9769    0.0000 N   0  0  0  0  0  0  0  0  0  0  0  0
   -4.2527    6.9567    0.0000 C   0  0  0  0  0  0  0  0  0  0  0  0
   -3.9189    5.4943    0.0000 C   0  0  0  0  0  0  0  0  0  0  0  0
    5.9147    3.2498    0.0000 C   0  0  0  0  0  0  0  0  0  0  0  0
    6.8499    4.4226    0.0000 C   0  0  0  0  0  0  0  0  0  0  0  0
    9.6556    7.9408    0.0000 C   0  0  0  0  0  0  0  0  0  0  0  0
  1  2  1  0
  2  3  1  0
  2  4  1  0
  4  5  2  0
  5  6  1  0
  6  7  2  0
  7  8  1  0
  7  9  1  0
  9 10  1  0
 10 11  2  0
 10 12  1  0
 12 13  2  0
 13 14  1  0
 14 15  2  0
 15 16  1  0
 16 17  2  0
 16 18  1  0
 19 18  1  6
 19 20  1  0
 20 21  1  0
 21 22  1  0
 22 23  1  0
 23 24  1  0
 24 25  1  0
 25 26  1  1
 26 27  1  0
 27 28  2  0
 27 29  1  0
 29 30  2  0
 30 31  1  0
 31 32  2  0
 32 33  1  0
 33 34  2  0
 15 35  1  0
 35 36  2  0
  9 37  2  0
 37  4  1  0
 36 12  1  0
 25 19  1  0
 34 29  1  0
M  END
>  <Compound_ID>  (4) 
CHEMBL536718

>  <Active>  (4) 
1

>  <Smiles>  (4) 
CN(C)c1ccc(O)c(C(=O)c2ccc(C(=O)N[C@@H]3CCCNC[C@H]3NC(=O)c3ccncc3)cc2)c1

>  <canonical_smi>  (4) 
CN(C)c1ccc(O)c(C(=O)c2ccc(C(=O)N[C@@H]3CCCNC[C@H]3NC(=O)c3ccncc3)cc2)c1

>  <Set>  (4) 
G1 active

>  <Set_type>  (4) 
G1

>  <MW>  (4) 
501.59

>  <HBD>  (4) 
4

>  <HBA>  (4) 
7

>  <NRB>  (4) 
7

>  <NR>  (4) 
4

>  <NAR>  (4) 
3

>  <PSA>  (4) 
123.66

>  <Standard Type>  (4) 
nan

>  <Standard Relation>  (4) 
nan

>  <Standard Units>  (4) 
nan

>  <Standard Value>  (4) 
nan

>  <Assay ChEMBL ID>  (4) 
nan

>  <Assay Description>  (4) 
nan

>  <BAO Label>  (4) 
nan

>  <bits>  (4) 
<rdkit.DataStructs.cDataStructs.ExplicitBitVect object at 0x000001A323074890>

>  <Group>  (4) 
G2

$$$$

     RDKit          2D

 28 32  0  0  0  0  0  0  0  0999 V2000
   -5.0365   -5.3981    0.0000 Cl  0  0  0  0  0  0  0  0  0  0  0  0
   -5.7407   -4.0737    0.0000 C   0  0  0  0  0  0  0  0  0  0  0  0
   -7.2398   -4.0213    0.0000 C   0  0  0  0  0  0  0  0  0  0  0  0
   -7.9440   -2.6969    0.0000 C   0  0  0  0  0  0  0  0  0  0  0  0
   -7.1491   -1.4248    0.0000 C   0  0  0  0  0  0  0  0  0  0  0  0
   -7.8533   -0.1004    0.0000 C   0  0  0  0  0  0  0  0  0  0  0  0
   -6.4268    0.3631    0.0000 C   0  0  0  0  0  0  0  0  0  0  0  0
   -5.3120   -0.6406    0.0000 C   0  0  0  0  0  0  0  0  0  0  0  0
   -3.8855   -0.1771    0.0000 C   0  0  0  0  0  0  0  0  0  0  0  0
   -3.5736    1.2902    0.0000 C   0  0  0  0  0  0  0  0  0  0  0  0
   -2.1470    1.7537    0.0000 C   0  0  0  0  0  0  0  0  0  0  0  0
   -1.8351    3.2209    0.0000 N   0  0  0  0  0  0  0  0  0  0  0  0
   -0.4086    3.6844    0.0000 C   0  0  0  0  0  0  0  0  0  0  0  0
    0.7062    2.6807    0.0000 N   0  0  0  0  0  0  0  0  0  0  0  0
    0.3943    1.2135    0.0000 C   0  0  0  0  0  0  0  0  0  0  0  0
    1.2760    0.0000    0.0000 N   0  0  0  0  0  0  0  0  0  0  0  0
    0.3943   -1.2135    0.0000 C   0  0  0  0  0  0  0  0  0  0  0  0
   -1.0323   -0.7500    0.0000 N   0  0  0  0  0  0  0  0  0  0  0  0
   -1.0323    0.7500    0.0000 C   0  0  0  0  0  0  0  0  0  0  0  0
   -4.6883    2.2939    0.0000 C   0  0  0  0  0  0  0  0  0  0  0  0
   -6.1149    1.8303    0.0000 C   0  0  0  0  0  0  0  0  0  0  0  0
   -8.0621    1.3850    0.0000 C   0  0  0  0  0  0  0  0  0  0  0  0
   -9.4529    1.9469    0.0000 C   0  0  0  0  0  0  0  0  0  0  0  0
  -10.6349    1.0234    0.0000 N   0  0  0  0  0  0  0  0  0  0  0  0
  -10.4261   -0.4620    0.0000 C   0  0  0  0  0  0  0  0  0  0  0  0
   -9.0354   -1.0239    0.0000 C   0  0  0  0  0  0  0  0  0  0  0  0
   -5.6500   -1.4772    0.0000 C   0  0  0  0  0  0  0  0  0  0  0  0
   -4.9458   -2.8016    0.0000 C   0  0  0  0  0  0  0  0  0  0  0  0
  1  2  1  0
  2  3  2  0
  3  4  1  0
  4  5  2  0
  5  6  1  0
  6  7  1  0
  7  8  2  0
  8  9  1  0
  9 10  2  0
 10 11  1  0
 11 12  2  0
 12 13  1  0
 13 14  2  0
 14 15  1  0
 15 16  1  0
 16 17  1  0
 17 18  2  0
 18 19  1  0
 10 20  1  0
 20 21  2  0
  6 22  1  0
 22 23  1  0
 23 24  1  0
 24 25  1  0
 25 26  1  0
  5 27  1  0
 27 28  2  0
 28  2  1  0
 26  6  1  0
 21  7  1  0
 19 11  1  0
 19 15  2  0
M  END
>  <Compound_ID>  (5) 
CHEMBL228133

>  <Active>  (5) 
1

>  <Smiles>  (5) 
Clc1ccc(C2(c3ccc(-c4ncnc5[nH]cnc45)cc3)CCNCC2)cc1

>  <canonical_smi>  (5) 
Clc1ccc(C2(c3ccc(-c4ncnc5[nH]cnc45)cc3)CCNCC2)cc1

>  <Set>  (5) 
G1 active

>  <Set_type>  (5) 
G1

>  <MW>  (5) 
389.89

>  <HBD>  (5) 
2

>  <HBA>  (5) 
4

>  <NRB>  (5) 
3

>  <NR>  (5) 
5

>  <NAR>  (5) 
4

>  <PSA>  (5) 
66.49

>  <Standard Type>  (5) 
nan

>  <Standard Relation>  (5) 
nan

>  <Standard Units>  (5) 
nan

>  <Standard Value>  (5) 
nan

>  <Assay ChEMBL ID>  (5) 
nan

>  <Assay Description>  (5) 
nan

>  <BAO Label>  (5) 
nan

>  <bits>  (5) 
<rdkit.DataStructs.cDataStructs.ExplicitBitVect object at 0x000001A323074900>

>  <Group>  (5) 
G2

$$$$

     RDKit          2D

 33 36  0  0  0  0  0  0  0  0999 V2000
   -3.7548   -2.1855    0.0000 C   0  0  0  0  0  0  0  0  0  0  0  0
   -2.6401   -3.1891    0.0000 C   0  0  0  0  0  0  0  0  0  0  0  0
   -1.2135   -2.7256    0.0000 N   0  0  0  0  0  0  0  0  0  0  0  0
   -0.0000   -3.6073    0.0000 C   0  0  0  0  0  0  0  0  0  0  0  0
   -0.0000   -5.1073    0.0000 C   0  0  0  0  0  0  0  0  0  0  0  0
    1.2135   -5.9890    0.0000 N   0  0  0  0  0  0  0  0  0  0  0  0
    0.7500   -7.4156    0.0000 O   0  0  0  0  0  0  0  0  0  0  0  0
   -0.7500   -7.4156    0.0000 N   0  0  0  0  0  0  0  0  0  0  0  0
   -1.2135   -5.9890    0.0000 C   0  0  0  0  0  0  0  0  0  0  0  0
   -2.6401   -5.5255    0.0000 N   0  0  0  0  0  0  0  0  0  0  0  0
    1.2135   -2.7256    0.0000 N   0  0  0  0  0  0  0  0  0  0  0  0
    0.7500   -1.2990    0.0000 C   0  0  0  0  0  0  0  0  0  0  0  0
    1.5000    0.0000    0.0000 C   0  0  0  0  0  0  0  0  0  0  0  0
    3.0000    0.0000    0.0000 C   0  0  0  0  0  0  0  0  0  0  0  0
    4.5000    0.0000    0.0000 C   0  0  0  0  0  0  0  0  0  0  0  0
    6.0000    0.0000    0.0000 C   0  0  0  0  0  0  0  0  0  0  0  0
    6.0000   -1.5000    0.0000 C   0  0  0  0  0  0  0  0  0  0  0  0
    6.0000    1.5000    0.0000 C   0  0  0  0  0  0  0  0  0  0  0  0
    7.5000    0.0000    0.0000 O   0  0  0  0  0  0  0  0  0  0  0  0
    0.7500    1.2990    0.0000 N   0  0  0  0  0  0  0  0  0  0  0  0
   -0.7500    1.2990    0.0000 C   0  0  0  0  0  0  0  0  0  0  0  0
   -1.5000    2.5981    0.0000 O   0  0  0  0  0  0  0  0  0  0  0  0
   -0.7500    3.8971    0.0000 C   0  0  0  0  0  0  0  0  0  0  0  0
   -1.5000    5.1962    0.0000 C   0  0  0  0  0  0  0  0  0  0  0  0
   -3.0000    5.1962    0.0000 N   0  0  0  0  0  0  0  0  0  0  0  0
   -0.7500    6.4952    0.0000 C   0  0  0  0  0  0  0  0  0  0  0  0
    0.7500    6.4952    0.0000 C   0  0  0  0  0  0  0  0  0  0  0  0
    1.5000    7.7942    0.0000 C   0  0  0  0  0  0  0  0  0  0  0  0
    0.7500    9.0933    0.0000 C   0  0  0  0  0  0  0  0  0  0  0  0
   -0.7500    9.0933    0.0000 C   0  0  0  0  0  0  0  0  0  0  0  0
   -1.5000    7.7942    0.0000 C   0  0  0  0  0  0  0  0  0  0  0  0
   -1.5000    0.0000    0.0000 C   0  0  0  0  0  0  0  0  0  0  0  0
   -0.7500   -1.2990    0.0000 C   0  0  0  0  0  0  0  0  0  0  0  0
  1  2  1  0
  2  3  1  0
  3  4  1  0
  4  5  1  0
  5  6  2  0
  6  7  1  0
  7  8  1  0
  8  9  2  0
  9 10  1  0
  4 11  2  0
 11 12  1  0
 12 13  2  0
 13 14  1  0
 14 15  3  0
 15 16  1  0
 16 17  1  0
 16 18  1  0
 16 19  1  0
 13 20  1  0
 20 21  2  0
 21 22  1  0
 22 23  1  0
 23 24  1  0
 24 25  1  6
 24 26  1  0
 26 27  2  0
 27 28  1  0
 28 29  2  0
 29 30  1  0
 30 31  2  0
 21 32  1  0
 32 33  2  0
 33  3  1  0
  9  5  1  0
 33 12  1  0
 31 26  1  0
M  END
>  <Compound_ID>  (6) 
CHEMBL1096634

>  <Active>  (6) 
1

>  <Smiles>  (6) 
CCn1c(-c2nonc2N)nc2c(C#CC(C)(C)O)nc(OC[C@H](N)c3ccccc3)cc21

>  <canonical_smi>  (6) 
CCn1c(-c2nonc2N)nc2c(C#CC(C)(C)O)nc(OC[C@H](N)c3ccccc3)cc21

>  <Set>  (6) 
G1 active

>  <Set_type>  (6) 
G1

>  <MW>  (6) 
447.5

>  <HBD>  (6) 
3

>  <HBA>  (6) 
9

>  <NRB>  (6) 
6

>  <NR>  (6) 
4

>  <NAR>  (6) 
4

>  <PSA>  (6) 
151.13

>  <Standard Type>  (6) 
nan

>  <Standard Relation>  (6) 
nan

>  <Standard Units>  (6) 
nan

>  <Standard Value>  (6) 
nan

>  <Assay ChEMBL ID>  (6) 
nan

>  <Assay Description>  (6) 
nan

>  <BAO Label>  (6) 
nan

>  <bits>  (6) 
<rdkit.DataStructs.cDataStructs.ExplicitBitVect object at 0x000001A323075150>

>  <Group>  (6) 
G2

$$$$

     RDKit          2D

 27 31  0  0  0  0  0  0  0  0999 V2000
   -2.3405   -4.4101    0.0000 N   0  0  0  0  0  0  0  0  0  0  0  0
   -3.7500   -3.8971    0.0000 C   0  0  0  0  0  0  0  0  0  0  0  0
   -3.0000   -2.5981    0.0000 C   0  0  0  0  0  0  0  0  0  0  0  0
   -1.5000   -2.5981    0.0000 C   0  0  0  0  0  0  0  0  0  0  0  0
   -0.7500   -3.8971    0.0000 C   0  0  0  0  0  0  0  0  0  0  0  0
    0.7500   -3.8971    0.0000 C   0  0  0  0  0  0  0  0  0  0  0  0
    1.5000   -2.5981    0.0000 C   0  0  0  0  0  0  0  0  0  0  0  0
    0.7500   -1.2990    0.0000 C   0  0  0  0  0  0  0  0  0  0  0  0
    1.5000    0.0000    0.0000 C   0  0  0  0  0  0  0  0  0  0  0  0
    0.7500    1.2990    0.0000 C   0  0  0  0  0  0  0  0  0  0  0  0
   -0.7500    1.2990    0.0000 C   0  0  0  0  0  0  0  0  0  0  0  0
   -1.5000    0.0000    0.0000 C   0  0  0  0  0  0  0  0  0  0  0  0
   -0.7500   -1.2990    0.0000 C   0  0  0  0  0  0  0  0  0  0  0  0
   -4.8991   -2.9329    0.0000 C   0  0  0  0  0  0  0  0  0  0  0  0
   -6.3086   -3.4460    0.0000 C   0  0  0  0  0  0  0  0  0  0  0  0
   -6.5691   -4.9232    0.0000 N   0  0  0  0  0  0  0  0  0  0  0  0
   -7.9786   -5.4362    0.0000 C   0  0  0  0  0  0  0  0  0  0  0  0
   -9.1277   -4.4720    0.0000 N   0  0  0  0  0  0  0  0  0  0  0  0
  -10.5372   -4.9851    0.0000 C   0  0  0  0  0  0  0  0  0  0  0  0
  -10.7977   -6.4623    0.0000 N   0  0  0  0  0  0  0  0  0  0  0  0
   -9.6486   -7.4264    0.0000 C   0  0  0  0  0  0  0  0  0  0  0  0
   -9.5963   -8.9255    0.0000 N   0  0  0  0  0  0  0  0  0  0  0  0
   -8.1544   -9.3390    0.0000 C   0  0  0  0  0  0  0  0  0  0  0  0
   -7.3156   -8.0954    0.0000 C   0  0  0  0  0  0  0  0  0  0  0  0
   -8.2391   -6.9134    0.0000 C   0  0  0  0  0  0  0  0  0  0  0  0
   -5.4200   -5.8874    0.0000 C   0  0  0  0  0  0  0  0  0  0  0  0
   -4.0105   -5.3743    0.0000 C   0  0  0  0  0  0  0  0  0  0  0  0
  1  2  1  0
  2  3  1  0
  3  4  1  0
  4  5  2  0
  5  6  1  0
  6  7  2  0
  7  8  1  0
  8  9  2  0
  9 10  1  0
 10 11  2  0
 11 12  1  0
 12 13  2  0
  2 14  1  0
 14 15  1  0
 15 16  1  0
 16 17  1  0
 17 18  2  0
 18 19  1  0
 19 20  2  0
 20 21  1  0
 21 22  1  0
 22 23  1  0
 23 24  2  0
 24 25  1  0
 16 26  1  0
 26 27  1  0
 27  2  1  0
 13  4  1  0
 25 17  1  0
 13  8  1  0
 25 21  2  0
M  END
>  <Compound_ID>  (7) 
CHEMBL598448

>  <Active>  (7) 
1

>  <Smiles>  (7) 
NC1(Cc2cccc3ccccc23)CCN(c2ncnc3[nH]ccc23)CC1

>  <canonical_smi>  (7) 
NC1(Cc2cccc3ccccc23)CCN(c2ncnc3[nH]ccc23)CC1

>  <Set>  (7) 
G1 active

>  <Set_type>  (7) 
G1

>  <MW>  (7) 
357.46

>  <HBD>  (7) 
2

>  <HBA>  (7) 
4

>  <NRB>  (7) 
3

>  <NR>  (7) 
5

>  <NAR>  (7) 
4

>  <PSA>  (7) 
70.83

>  <Standard Type>  (7) 
nan

>  <Standard Relation>  (7) 
nan

>  <Standard Units>  (7) 
nan

>  <Standard Value>  (7) 
nan

>  <Assay ChEMBL ID>  (7) 
nan

>  <Assay Description>  (7) 
nan

>  <BAO Label>  (7) 
nan

>  <bits>  (7) 
<rdkit.DataStructs.cDataStructs.ExplicitBitVect object at 0x000001A323074040>

>  <Group>  (7) 
G2

$$$$

     RDKit          2D

 31 34  0  0  0  0  0  0  0  0999 V2000
    5.2500   -1.2990    0.0000 N   0  0  0  0  0  0  0  0  0  0  0  0
    3.7500   -1.2990    0.0000 C   0  0  0  0  0  0  0  0  0  0  0  0
    3.0000   -2.5981    0.0000 O   0  0  0  0  0  0  0  0  0  0  0  0
    3.0000    0.0000    0.0000 N   0  0  0  0  0  0  0  0  0  0  0  0
    1.5000    0.0000    0.0000 C   0  0  0  0  0  0  0  0  0  0  0  0
    0.7500   -1.2990    0.0000 C   0  0  0  0  0  0  0  0  0  0  0  0
   -0.7500   -1.2990    0.0000 C   0  0  0  0  0  0  0  0  0  0  0  0
   -1.5000    0.0000    0.0000 C   0  0  0  0  0  0  0  0  0  0  0  0
   -0.7500    1.2990    0.0000 C   0  0  0  0  0  0  0  0  0  0  0  0
    0.7500    1.2990    0.0000 C   0  0  0  0  0  0  0  0  0  0  0  0
   -1.7537    2.4138    0.0000 C   0  0  0  0  0  0  0  0  0  0  0  0
   -1.4418    3.8810    0.0000 C   0  0  0  0  0  0  0  0  0  0  0  0
   -2.5565    4.8847    0.0000 C   0  0  0  0  0  0  0  0  0  0  0  0
   -4.0238    4.5728    0.0000 C   0  0  0  0  0  0  0  0  0  0  0  0
   -4.7738    5.8718    0.0000 C   0  0  0  0  0  0  0  0  0  0  0  0
   -6.2655    6.0286    0.0000 C   0  0  0  0  0  0  0  0  0  0  0  0
   -7.1472    4.8151    0.0000 O   0  0  0  0  0  0  0  0  0  0  0  0
   -6.8757    7.3990    0.0000 N   0  0  0  0  0  0  0  0  0  0  0  0
   -8.3674    7.5557    0.0000 C   0  0  0  0  0  0  0  0  0  0  0  0
   -8.9775    8.9261    0.0000 C   0  0  0  0  0  0  0  0  0  0  0  0
  -10.4693    9.0829    0.0000 N   0  0  0  0  0  0  0  0  0  0  0  0
  -11.0794   10.4532    0.0000 C   0  0  0  0  0  0  0  0  0  0  0  0
  -12.5712   10.6100    0.0000 C   0  0  0  0  0  0  0  0  0  0  0  0
  -13.4529    9.3964    0.0000 O   0  0  0  0  0  0  0  0  0  0  0  0
  -12.8428    8.0261    0.0000 C   0  0  0  0  0  0  0  0  0  0  0  0
  -11.3510    7.8693    0.0000 C   0  0  0  0  0  0  0  0  0  0  0  0
   -3.7701    6.9866    0.0000 C   0  0  0  0  0  0  0  0  0  0  0  0
   -2.3998    6.3765    0.0000 N   0  0  0  0  0  0  0  0  0  0  0  0
   -3.1240    1.8037    0.0000 C   0  0  0  0  0  0  0  0  0  0  0  0
   -4.4231    2.5537    0.0000 O   0  0  0  0  0  0  0  0  0  0  0  0
   -2.9672    0.3119    0.0000 N   0  0  0  0  0  0  0  0  0  0  0  0
  1  2  1  0
  2  3  2  0
  2  4  1  0
  4  5  1  0
  5  6  2  0
  6  7  1  0
  7  8  2  0
  8  9  1  0
  9 10  2  0
  9 11  1  0
 11 12  2  0
 12 13  1  0
 13 14  2  0
 14 15  1  0
 15 16  1  0
 16 17  2  0
 16 18  1  0
 18 19  1  0
 19 20  1  0
 20 21  1  0
 21 22  1  0
 22 23  1  0
 23 24  1  0
 24 25  1  0
 25 26  1  0
 15 27  2  0
 27 28  1  0
 11 29  1  0
 29 30  2  0
 29 31  1  0
 10  5  1  0
 28 13  1  0
 31  8  1  0
 26 21  1  0
M  END
>  <Compound_ID>  (8) 
CHEMBL388184

>  <Active>  (8) 
1

>  <Smiles>  (8) 
NC(=O)Nc1ccc2c(c1)/C(=C/c1cc(C(=O)NCCN3CCOCC3)c[nH]1)C(=O)N2

>  <canonical_smi>  (8) 
NC(=O)Nc1ccc2c(c1)/C(=C/c1cc(C(=O)NCCN3CCOCC3)c[nH]1)C(=O)N2

>  <Set>  (8) 
G1 active

>  <Set_type>  (8) 
G1

>  <MW>  (8) 
424.46

>  <HBD>  (8) 
5

>  <HBA>  (8) 
5

>  <NRB>  (8) 
6

>  <NR>  (8) 
4

>  <NAR>  (8) 
2

>  <PSA>  (8) 
141.58

>  <Standard Type>  (8) 
nan

>  <Standard Relation>  (8) 
nan

>  <Standard Units>  (8) 
nan

>  <Standard Value>  (8) 
nan

>  <Assay ChEMBL ID>  (8) 
nan

>  <Assay Description>  (8) 
nan

>  <BAO Label>  (8) 
nan

>  <bits>  (8) 
<rdkit.DataStructs.cDataStructs.ExplicitBitVect object at 0x000001A3230740B0>

>  <Group>  (8) 
G2

$$$$

     RDKit          2D

 35 40  0  0  0  0  0  0  0  0999 V2000
   -2.6401   -3.1891    0.0000 C   0  0  0  0  0  0  0  0  0  0  0  0
   -1.2135   -2.7256    0.0000 C   0  0  0  0  0  0  0  0  0  0  0  0
   -0.0000   -3.6073    0.0000 N   0  0  0  0  0  0  0  0  0  0  0  0
    1.2135   -2.7256    0.0000 N   0  0  0  0  0  0  0  0  0  0  0  0
    0.7500   -1.2990    0.0000 C   0  0  0  0  0  0  0  0  0  0  0  0
    1.5000    0.0000    0.0000 C   0  0  0  0  0  0  0  0  0  0  0  0
    0.7500    1.2990    0.0000 N   0  0  0  0  0  0  0  0  0  0  0  0
   -0.7500    1.2990    0.0000 C   0  0  0  0  0  0  0  0  0  0  0  0
   -1.5000    2.5981    0.0000 C   0  0  0  0  0  0  0  0  0  0  0  0
   -0.7500    3.8971    0.0000 C   0  0  0  0  0  0  0  0  0  0  0  0
   -1.5000    5.1962    0.0000 C   0  0  0  0  0  0  0  0  0  0  0  0
   -0.7500    6.4952    0.0000 O   0  0  0  0  0  0  0  0  0  0  0  0
    0.7500    6.4952    0.0000 C   0  0  0  0  0  0  0  0  0  0  0  0
    1.5000    7.7942    0.0000 C   0  0  0  0  0  0  0  0  0  0  0  0
    0.7500    9.0933    0.0000 N   0  0  0  0  0  0  0  0  0  0  0  0
    3.0000    7.7942    0.0000 C   0  0  0  0  0  0  0  0  0  0  0  0
    3.7500    9.0933    0.0000 C   0  0  0  0  0  0  0  0  0  0  0  0
    3.1399   10.4636    0.0000 C   0  0  0  0  0  0  0  0  0  0  0  0
    4.2546   11.4673    0.0000 N   0  0  0  0  0  0  0  0  0  0  0  0
    5.5537   10.7173    0.0000 C   0  0  0  0  0  0  0  0  0  0  0  0
    6.9802   11.1808    0.0000 C   0  0  0  0  0  0  0  0  0  0  0  0
    8.0950   10.1771    0.0000 C   0  0  0  0  0  0  0  0  0  0  0  0
    7.7831    8.7099    0.0000 C   0  0  0  0  0  0  0  0  0  0  0  0
    6.3565    8.2464    0.0000 C   0  0  0  0  0  0  0  0  0  0  0  0
    5.2418    9.2501    0.0000 C   0  0  0  0  0  0  0  0  0  0  0  0
   -3.0000    5.1962    0.0000 C   0  0  0  0  0  0  0  0  0  0  0  0
   -3.7500    3.8971    0.0000 N   0  0  0  0  0  0  0  0  0  0  0  0
   -3.0000    2.5981    0.0000 C   0  0  0  0  0  0  0  0  0  0  0  0
   -3.7500    1.2990    0.0000 C   0  0  0  0  0  0  0  0  0  0  0  0
   -3.1399   -0.0713    0.0000 C   0  0  0  0  0  0  0  0  0  0  0  0
   -4.2546   -1.0750    0.0000 C   0  0  0  0  0  0  0  0  0  0  0  0
   -5.5537   -0.3250    0.0000 O   0  0  0  0  0  0  0  0  0  0  0  0
   -5.2418    1.1422    0.0000 C   0  0  0  0  0  0  0  0  0  0  0  0
   -1.5000    0.0000    0.0000 N   0  0  0  0  0  0  0  0  0  0  0  0
   -0.7500   -1.2990    0.0000 C   0  0  0  0  0  0  0  0  0  0  0  0
  1  2  1  0
  2  3  2  0
  3  4  1  0
  4  5  1  0
  5  6  2  0
  6  7  1  0
  7  8  2  0
  8  9  1  0
  9 10  2  0
 10 11  1  0
 11 12  1  0
 12 13  1  0
 13 14  1  0
 14 15  1  1
 14 16  1  0
 16 17  1  0
 17 18  2  0
 18 19  1  0
 19 20  1  0
 20 21  2  0
 21 22  1  0
 22 23  2  0
 23 24  1  0
 24 25  2  0
 11 26  2  0
 26 27  1  0
 27 28  2  0
 28 29  1  0
 29 30  1  0
 30 31  2  0
 31 32  1  0
 32 33  1  0
  8 34  1  0
 34 35  2  0
 35  2  1  0
 35  5  1  0
 28  9  1  0
 33 29  2  0
 25 17  1  0
 25 20  1  0
M  END
>  <Compound_ID>  (9) 
CHEMBL603197

>  <Active>  (9) 
1

>  <Smiles>  (9) 
Cc1n[nH]c2cnc(-c3cc(OC[C@@H](N)Cc4c[nH]c5ccccc45)cnc3-c3ccoc3)nc12

>  <canonical_smi>  (9) 
Cc1n[nH]c2cnc(-c3cc(OC[C@@H](N)Cc4c[nH]c5ccccc45)cnc3-c3ccoc3)nc12

>  <Set>  (9) 
G1 active

>  <Set_type>  (9) 
G1

>  <MW>  (9) 
465.52

>  <HBD>  (9) 
3

>  <HBA>  (9) 
7

>  <NRB>  (9) 
7

>  <NR>  (9) 
6

>  <NAR>  (9) 
6

>  <PSA>  (9) 
131.53

>  <Standard Type>  (9) 
nan

>  <Standard Relation>  (9) 
nan

>  <Standard Units>  (9) 
nan

>  <Standard Value>  (9) 
nan

>  <Assay ChEMBL ID>  (9) 
nan

>  <Assay Description>  (9) 
nan

>  <BAO Label>  (9) 
nan

>  <bits>  (9) 
<rdkit.DataStructs.cDataStructs.ExplicitBitVect object at 0x000001A323074120>

>  <Group>  (9) 
G2

$$$$

     RDKit          2D

 30 33  0  0  0  0  0  0  0  0999 V2000
   -7.4747  -10.5404    0.0000 C   0  0  0  0  0  0  0  0  0  0  0  0
   -6.3600  -11.5441    0.0000 N   0  0  0  0  0  0  0  0  0  0  0  0
   -6.6718  -13.0113    0.0000 C   0  0  0  0  0  0  0  0  0  0  0  0
   -4.9334  -11.0806    0.0000 C   0  0  0  0  0  0  0  0  0  0  0  0
   -3.7199  -11.9622    0.0000 C   0  0  0  0  0  0  0  0  0  0  0  0
   -2.5063  -11.0806    0.0000 C   0  0  0  0  0  0  0  0  0  0  0  0
   -2.9699   -9.6540    0.0000 N   0  0  0  0  0  0  0  0  0  0  0  0
   -2.0882   -8.4404    0.0000 C   0  0  0  0  0  0  0  0  0  0  0  0
   -0.5964   -8.5972    0.0000 O   0  0  0  0  0  0  0  0  0  0  0  0
   -2.6983   -7.0701    0.0000 C   0  0  0  0  0  0  0  0  0  0  0  0
   -4.1655   -6.7583    0.0000 C   0  0  0  0  0  0  0  0  0  0  0  0
   -4.3223   -5.2665    0.0000 N   0  0  0  0  0  0  0  0  0  0  0  0
   -2.9520   -4.6564    0.0000 C   0  0  0  0  0  0  0  0  0  0  0  0
   -2.6401   -3.1891    0.0000 C   0  0  0  0  0  0  0  0  0  0  0  0
   -1.2135   -2.7256    0.0000 C   0  0  0  0  0  0  0  0  0  0  0  0
   -0.0000   -3.6073    0.0000 C   0  0  0  0  0  0  0  0  0  0  0  0
    0.0000   -5.1073    0.0000 O   0  0  0  0  0  0  0  0  0  0  0  0
    1.2135   -2.7256    0.0000 N   0  0  0  0  0  0  0  0  0  0  0  0
    0.7500   -1.2990    0.0000 C   0  0  0  0  0  0  0  0  0  0  0  0
    1.5000    0.0000    0.0000 C   0  0  0  0  0  0  0  0  0  0  0  0
    0.7500    1.2990    0.0000 C   0  0  0  0  0  0  0  0  0  0  0  0
   -0.7500    1.2990    0.0000 C   0  0  0  0  0  0  0  0  0  0  0  0
   -1.5000    2.5981    0.0000 N   0  0  0  0  0  0  0  0  0  0  0  0
   -0.7500    3.8971    0.0000 C   0  0  0  0  0  0  0  0  0  0  0  0
   -1.5000    5.1962    0.0000 N   0  0  0  0  0  0  0  0  0  0  0  0
    0.7500    3.8971    0.0000 O   0  0  0  0  0  0  0  0  0  0  0  0
   -1.5000    0.0000    0.0000 C   0  0  0  0  0  0  0  0  0  0  0  0
   -0.7500   -1.2990    0.0000 C   0  0  0  0  0  0  0  0  0  0  0  0
   -1.9483   -5.7711    0.0000 C   0  0  0  0  0  0  0  0  0  0  0  0
   -4.4699   -9.6540    0.0000 C   0  0  0  0  0  0  0  0  0  0  0  0
  1  2  1  0
  2  3  1  0
  2  4  1  0
  4  5  1  0
  5  6  1  0
  6  7  1  0
  7  8  1  0
  8  9  2  0
  8 10  1  0
 10 11  2  0
 11 12  1  0
 12 13  1  0
 13 14  1  0
 14 15  2  0
 15 16  1  0
 16 17  2  0
 16 18  1  0
 18 19  1  0
 19 20  2  0
 20 21  1  0
 21 22  2  0
 22 23  1  0
 23 24  1  0
 24 25  1  0
 24 26  2  0
 22 27  1  0
 27 28  2  0
 13 29  2  0
  7 30  1  0
 30  4  1  0
 29 10  1  0
 28 15  1  0
 28 19  1  0
M  END
>  <Compound_ID>  (10) 
CHEMBL388395

>  <Active>  (10) 
1

>  <Smiles>  (10) 
CN(C)C1CCN(C(=O)c2c[nH]c(/C=C3\C(=O)Nc4ccc(NC(N)=O)cc43)c2)C1

>  <canonical_smi>  (10) 
CN(C)C1CCN(C(=O)c2c[nH]c(/C=C3\C(=O)Nc4ccc(NC(N)=O)cc43)c2)C1

>  <Set>  (10) 
G1 active

>  <Set_type>  (10) 
G1

>  <MW>  (10) 
408.46

>  <HBD>  (10) 
4

>  <HBA>  (10) 
4

>  <NRB>  (10) 
4

>  <NR>  (10) 
4

>  <NAR>  (10) 
2

>  <PSA>  (10) 
123.56

>  <Standard Type>  (10) 
nan

>  <Standard Relation>  (10) 
nan

>  <Standard Units>  (10) 
nan

>  <Standard Value>  (10) 
nan

>  <Assay ChEMBL ID>  (10) 
nan

>  <Assay Description>  (10) 
nan

>  <BAO Label>  (10) 
nan

>  <bits>  (10) 
<rdkit.DataStructs.cDataStructs.ExplicitBitVect object at 0x000001A323074190>

>  <Group>  (10) 
G2

$$$$

     RDKit          2D

 27 30  0  0  0  0  0  0  0  0999 V2000
   -9.0638   -4.9905    0.0000 N   0  0  0  0  0  0  0  0  0  0  0  0
   -8.1821   -3.7770    0.0000 C   0  0  0  0  0  0  0  0  0  0  0  0
   -8.7923   -2.4067    0.0000 C   0  0  0  0  0  0  0  0  0  0  0  0
   -7.9106   -1.1931    0.0000 N   0  0  0  0  0  0  0  0  0  0  0  0
   -6.4188   -1.3499    0.0000 C   0  0  0  0  0  0  0  0  0  0  0  0
   -5.8087   -2.7203    0.0000 O   0  0  0  0  0  0  0  0  0  0  0  0
   -5.5371   -0.1364    0.0000 C   0  0  0  0  0  0  0  0  0  0  0  0
   -6.0006    1.2902    0.0000 C   0  0  0  0  0  0  0  0  0  0  0  0
   -4.7871    2.1718    0.0000 C   0  0  0  0  0  0  0  0  0  0  0  0
   -4.7871    3.6718    0.0000 Br  0  0  0  0  0  0  0  0  0  0  0  0
   -3.5736    1.2902    0.0000 C   0  0  0  0  0  0  0  0  0  0  0  0
   -2.1470    1.7537    0.0000 C   0  0  0  0  0  0  0  0  0  0  0  0
   -1.8351    3.2209    0.0000 C   0  0  0  0  0  0  0  0  0  0  0  0
   -0.4086    3.6844    0.0000 C   0  0  0  0  0  0  0  0  0  0  0  0
    0.7062    2.6807    0.0000 N   0  0  0  0  0  0  0  0  0  0  0  0
    0.3943    1.2135    0.0000 C   0  0  0  0  0  0  0  0  0  0  0  0
    1.2760    0.0000    0.0000 N   0  0  0  0  0  0  0  0  0  0  0  0
    0.3943   -1.2135    0.0000 C   0  0  0  0  0  0  0  0  0  0  0  0
   -1.0323   -0.7500    0.0000 C   0  0  0  0  0  0  0  0  0  0  0  0
   -1.0323    0.7500    0.0000 C   0  0  0  0  0  0  0  0  0  0  0  0
   -4.0371   -0.1364    0.0000 S   0  0  0  0  0  0  0  0  0  0  0  0
  -10.2840   -2.2499    0.0000 C   0  0  0  0  0  0  0  0  0  0  0  0
  -10.8941   -0.8796    0.0000 C   0  0  0  0  0  0  0  0  0  0  0  0
  -12.3859   -0.7228    0.0000 C   0  0  0  0  0  0  0  0  0  0  0  0
  -13.2676   -1.9363    0.0000 C   0  0  0  0  0  0  0  0  0  0  0  0
  -12.6575   -3.3066    0.0000 C   0  0  0  0  0  0  0  0  0  0  0  0
  -11.1657   -3.4634    0.0000 C   0  0  0  0  0  0  0  0  0  0  0  0
  1  2  1  0
  2  3  1  0
  3  4  1  0
  4  5  1  0
  5  6  2  0
  5  7  1  0
  7  8  2  0
  8  9  1  0
  9 10  1  0
  9 11  2  0
 11 12  1  0
 12 13  2  0
 13 14  1  0
 14 15  2  0
 15 16  1  0
 16 17  1  0
 17 18  1  0
 18 19  2  0
 19 20  1  0
 11 21  1  0
  3 22  1  0
 22 23  2  0
 23 24  1  0
 24 25  2  0
 25 26  1  0
 26 27  2  0
 21  7  1  0
 27 22  1  0
 20 12  1  0
 20 16  2  0
M  END
>  <Compound_ID>  (11) 
CHEMBL512135

>  <Active>  (11) 
1

>  <Smiles>  (11) 
NCC(NC(=O)c1cc(Br)c(-c2ccnc3[nH]ccc23)s1)c1ccccc1

>  <canonical_smi>  (11) 
NCC(NC(=O)c1cc(Br)c(-c2ccnc3[nH]ccc23)s1)c1ccccc1

>  <Set>  (11) 
G1 active

>  <Set_type>  (11) 
G1

>  <MW>  (11) 
441.35

>  <HBD>  (11) 
3

>  <HBA>  (11) 
3

>  <NRB>  (11) 
5

>  <NR>  (11) 
4

>  <NAR>  (11) 
4

>  <PSA>  (11) 
83.8

>  <Standard Type>  (11) 
nan

>  <Standard Relation>  (11) 
nan

>  <Standard Units>  (11) 
nan

>  <Standard Value>  (11) 
nan

>  <Assay ChEMBL ID>  (11) 
nan

>  <Assay Description>  (11) 
nan

>  <BAO Label>  (11) 
nan

>  <bits>  (11) 
<rdkit.DataStructs.cDataStructs.ExplicitBitVect object at 0x000001A323074430>

>  <Group>  (11) 
G2

$$$$

     RDKit          2D

 34 38  0  0  0  0  0  0  0  0999 V2000
   -1.1682   -6.5372    0.0000 C   0  0  0  0  0  0  0  0  0  0  0  0
   -1.6317   -5.1106    0.0000 C   0  0  0  0  0  0  0  0  0  0  0  0
   -3.0583   -4.6471    0.0000 O   0  0  0  0  0  0  0  0  0  0  0  0
   -3.0583   -3.1471    0.0000 C   0  0  0  0  0  0  0  0  0  0  0  0
   -1.6317   -2.6836    0.0000 C   0  0  0  0  0  0  0  0  0  0  0  0
   -0.7500   -3.8971    0.0000 C   0  0  0  0  0  0  0  0  0  0  0  0
    0.7500   -3.8971    0.0000 C   0  0  0  0  0  0  0  0  0  0  0  0
    1.5000   -5.1962    0.0000 N   0  0  0  0  0  0  0  0  0  0  0  0
    3.0000   -5.1962    0.0000 C   0  0  0  0  0  0  0  0  0  0  0  0
    3.7500   -6.4952    0.0000 N   0  0  0  0  0  0  0  0  0  0  0  0
    3.7500   -3.8971    0.0000 C   0  0  0  0  0  0  0  0  0  0  0  0
    5.2500   -3.8971    0.0000 O   0  0  0  0  0  0  0  0  0  0  0  0
    6.0000   -2.5981    0.0000 C   0  0  0  0  0  0  0  0  0  0  0  0
    7.5000   -2.5981    0.0000 C   0  0  0  0  0  0  0  0  0  0  0  0
    8.2500   -3.8971    0.0000 N   0  0  0  0  0  0  0  0  0  0  0  0
    8.2500   -1.2990    0.0000 C   0  0  0  0  0  0  0  0  0  0  0  0
    9.7500   -1.2990    0.0000 C   0  0  0  0  0  0  0  0  0  0  0  0
   10.5000   -2.5981    0.0000 C   0  0  0  0  0  0  0  0  0  0  0  0
   12.0000   -2.5981    0.0000 C   0  0  0  0  0  0  0  0  0  0  0  0
   12.7500   -1.2990    0.0000 C   0  0  0  0  0  0  0  0  0  0  0  0
   12.0000   -0.0000    0.0000 C   0  0  0  0  0  0  0  0  0  0  0  0
   10.5000   -0.0000    0.0000 C   0  0  0  0  0  0  0  0  0  0  0  0
    3.0000   -2.5981    0.0000 C   0  0  0  0  0  0  0  0  0  0  0  0
    1.5000   -2.5981    0.0000 C   0  0  0  0  0  0  0  0  0  0  0  0
    0.7500   -1.2990    0.0000 C   0  0  0  0  0  0  0  0  0  0  0  0
   -0.7500   -1.2990    0.0000 C   0  0  0  0  0  0  0  0  0  0  0  0
   -1.5000   -0.0000    0.0000 N   0  0  0  0  0  0  0  0  0  0  0  0
   -0.7500    1.2990    0.0000 C   0  0  0  0  0  0  0  0  0  0  0  0
   -1.2135    2.7256    0.0000 N   0  0  0  0  0  0  0  0  0  0  0  0
   -0.0000    3.6073    0.0000 N   0  0  0  0  0  0  0  0  0  0  0  0
    1.2135    2.7256    0.0000 C   0  0  0  0  0  0  0  0  0  0  0  0
    2.6401    3.1891    0.0000 C   0  0  0  0  0  0  0  0  0  0  0  0
    0.7500    1.2990    0.0000 C   0  0  0  0  0  0  0  0  0  0  0  0
    1.5000   -0.0000    0.0000 N   0  0  0  0  0  0  0  0  0  0  0  0
  1  2  1  0
  2  3  1  0
  3  4  1  0
  4  5  2  0
  5  6  1  0
  6  7  1  0
  7  8  2  0
  8  9  1  0
  9 10  1  0
  9 11  2  0
 11 12  1  0
 12 13  1  0
 13 14  1  0
 14 15  1  6
 14 16  1  0
 16 17  1  0
 17 18  2  0
 18 19  1  0
 19 20  2  0
 20 21  1  0
 21 22  2  0
 11 23  1  0
 23 24  2  0
 24 25  1  0
 25 26  2  0
 26 27  1  0
 27 28  2  0
 28 29  1  0
 29 30  1  0
 30 31  2  0
 31 32  1  0
 31 33  1  0
 33 34  2  0
  6  2  2  0
 24  7  1  0
 34 25  1  0
 22 17  1  0
 33 28  1  0
M  END
>  <Compound_ID>  (12) 
CHEMBL594755

>  <Active>  (12) 
1

>  <Smiles>  (12) 
Cc1occc1-c1nc(N)c(OC[C@@H](N)Cc2ccccc2)cc1-c1cnc2[nH]nc(C)c2n1

>  <canonical_smi>  (12) 
Cc1occc1-c1nc(N)c(OC[C@@H](N)Cc2ccccc2)cc1-c1cnc2[nH]nc(C)c2n1

>  <Set>  (12) 
G1 active

>  <Set_type>  (12) 
G1

>  <MW>  (12) 
455.52

>  <HBD>  (12) 
3

>  <HBA>  (12) 
8

>  <NRB>  (12) 
7

>  <NR>  (12) 
5

>  <NAR>  (12) 
5

>  <PSA>  (12) 
141.76

>  <Standard Type>  (12) 
nan

>  <Standard Relation>  (12) 
nan

>  <Standard Units>  (12) 
nan

>  <Standard Value>  (12) 
nan

>  <Assay ChEMBL ID>  (12) 
nan

>  <Assay Description>  (12) 
nan

>  <BAO Label>  (12) 
nan

>  <bits>  (12) 
<rdkit.DataStructs.cDataStructs.ExplicitBitVect object at 0x000001A3230744A0>

>  <Group>  (12) 
G2

$$$$

     RDKit          2D

 40 46  0  0  0  0  0  0  0  0999 V2000
    3.0000    0.0000    0.0000 N   0  0  0  0  0  0  0  0  0  0  0  0
    1.5000    0.0000    0.0000 C   0  0  0  0  0  0  0  0  0  0  0  0
    0.7500   -1.2990    0.0000 N   0  0  0  0  0  0  0  0  0  0  0  0
   -0.7500   -1.2990    0.0000 C   0  0  0  0  0  0  0  0  0  0  0  0
   -1.5000    0.0000    0.0000 N   0  0  0  0  0  0  0  0  0  0  0  0
   -0.7500    1.2990    0.0000 C   0  0  0  0  0  0  0  0  0  0  0  0
   -1.5000    2.5981    0.0000 N   0  0  0  0  0  0  0  0  0  0  0  0
   -0.7500    3.8971    0.0000 C   0  0  0  0  0  0  0  0  0  0  0  0
   -1.5000    5.1962    0.0000 C   0  0  0  0  0  0  0  0  0  0  0  0
   -0.7500    6.4952    0.0000 C   0  0  0  0  0  0  0  0  0  0  0  0
   -1.5000    7.7942    0.0000 C   0  0  0  0  0  0  0  0  0  0  0  0
   -3.0000    7.7942    0.0000 C   0  0  0  0  0  0  0  0  0  0  0  0
   -3.7500    9.0933    0.0000 C   0  0  0  0  0  0  0  0  0  0  0  0
   -3.0000   10.3923    0.0000 N   0  0  0  0  0  0  0  0  0  0  0  0
   -1.5000   10.3923    0.0000 C   0  0  0  0  0  0  0  0  0  0  0  0
   -0.7500   11.6913    0.0000 C   0  0  0  0  0  0  0  0  0  0  0  0
   -1.5000   12.9904    0.0000 C   0  0  0  0  0  0  0  0  0  0  0  0
   -0.7500   14.2894    0.0000 N   0  0  0  0  0  0  0  0  0  0  0  0
    0.7418   14.4462    0.0000 C   0  0  0  0  0  0  0  0  0  0  0  0
    1.7455   13.3315    0.0000 O   0  0  0  0  0  0  0  0  0  0  0  0
    1.0537   15.9134    0.0000 N   0  0  0  0  0  0  0  0  0  0  0  0
   -0.2454   16.6634    0.0000 C   0  0  0  0  0  0  0  0  0  0  0  0
   -0.5573   18.1307    0.0000 C   0  0  0  0  0  0  0  0  0  0  0  0
   -1.9838   18.5942    0.0000 C   0  0  0  0  0  0  0  0  0  0  0  0
   -3.0986   17.5905    0.0000 C   0  0  0  0  0  0  0  0  0  0  0  0
   -2.7867   16.1233    0.0000 C   0  0  0  0  0  0  0  0  0  0  0  0
   -1.3601   15.6597    0.0000 C   0  0  0  0  0  0  0  0  0  0  0  0
   -3.0000   12.9904    0.0000 C   0  0  0  0  0  0  0  0  0  0  0  0
   -3.7500   11.6913    0.0000 C   0  0  0  0  0  0  0  0  0  0  0  0
   -3.7500    6.4952    0.0000 C   0  0  0  0  0  0  0  0  0  0  0  0
   -3.0000    5.1962    0.0000 C   0  0  0  0  0  0  0  0  0  0  0  0
    0.7500    3.8971    0.0000 C   0  0  0  0  0  0  0  0  0  0  0  0
    1.5000    5.1962    0.0000 C   0  0  0  0  0  0  0  0  0  0  0  0
    3.0000    5.1962    0.0000 C   0  0  0  0  0  0  0  0  0  0  0  0
    3.7500    6.4952    0.0000 C   0  0  0  0  0  0  0  0  0  0  0  0
    3.0000    7.7942    0.0000 C   0  0  0  0  0  0  0  0  0  0  0  0
    1.5000    7.7942    0.0000 C   0  0  0  0  0  0  0  0  0  0  0  0
    0.7500    6.4952    0.0000 C   0  0  0  0  0  0  0  0  0  0  0  0
    1.5000    2.5981    0.0000 C   0  0  0  0  0  0  0  0  0  0  0  0
    0.7500    1.2990    0.0000 C   0  0  0  0  0  0  0  0  0  0  0  0
  1  2  1  0
  2  3  2  0
  3  4  1  0
  4  5  2  0
  5  6  1  0
  6  7  2  0
  7  8  1  0
  8  9  1  0
  9 10  2  0
 10 11  1  0
 11 12  2  0
 12 13  1  0
 13 14  1  0
 14 15  1  0
 15 16  1  0
 16 17  1  0
 17 18  1  0
 18 19  1  0
 19 20  2  0
 19 21  1  0
 21 22  1  0
 22 23  2  0
 23 24  1  0
 24 25  2  0
 25 26  1  0
 26 27  2  0
 17 28  1  0
 28 29  1  0
 12 30  1  0
 30 31  2  0
  8 32  2  0
 32 33  1  0
 33 34  2  0
 34 35  1  0
 35 36  2  0
 36 37  1  0
 37 38  2  0
 32 39  1  0
 39 40  2  0
 40  2  1  0
 40  6  1  0
 31  9  1  0
 38 33  1  0
 29 14  1  0
 27 18  1  0
 27 22  1  0
M  END
>  <Compound_ID>  (13) 
CHEMBL402199

>  <Active>  (13) 
1

>  <Smiles>  (13) 
Nc1ncnc2nc(-c3ccc(CN4CCC(n5c(=O)[nH]c6ccccc65)CC4)cc3)c(-c3ccccc3)cc12

>  <canonical_smi>  (13) 
Nc1ncnc2nc(-c3ccc(CN4CCC(n5c(=O)[nH]c6ccccc65)CC4)cc3)c(-c3ccccc3)cc12

>  <Set>  (13) 
G1 active

>  <Set_type>  (13) 
G1

>  <MW>  (13) 
527.63

>  <HBD>  (13) 
2

>  <HBA>  (13) 
6

>  <NRB>  (13) 
5

>  <NR>  (13) 
7

>  <NAR>  (13) 
6

>  <PSA>  (13) 
105.72

>  <Standard Type>  (13) 
nan

>  <Standard Relation>  (13) 
nan

>  <Standard Units>  (13) 
nan

>  <Standard Value>  (13) 
nan

>  <Assay ChEMBL ID>  (13) 
nan

>  <Assay Description>  (13) 
nan

>  <BAO Label>  (13) 
nan

>  <bits>  (13) 
<rdkit.DataStructs.cDataStructs.ExplicitBitVect object at 0x000001A323074580>

>  <Group>  (13) 
G2

$$$$

     RDKit          2D

 43 47  0  0  0  0  0  0  0  0999 V2000
   12.7455    5.0278    0.0000 C   0  0  0  0  0  0  0  0  0  0  0  0
   12.7829    3.5283    0.0000 C   0  0  0  0  0  0  0  0  0  0  0  0
   14.2532    3.8255    0.0000 C   0  0  0  0  0  0  0  0  0  0  0  0
   13.3309    2.1320    0.0000 C   0  0  0  0  0  0  0  0  0  0  0  0
   12.3957    0.9593    0.0000 C   0  0  0  0  0  0  0  0  0  0  0  0
   10.9125    1.1828    0.0000 C   0  0  0  0  0  0  0  0  0  0  0  0
   10.3644    2.5791    0.0000 N   0  0  0  0  0  0  0  0  0  0  0  0
   11.2997    3.7519    0.0000 C   0  0  0  0  0  0  0  0  0  0  0  0
   10.7517    5.1482    0.0000 C   0  0  0  0  0  0  0  0  0  0  0  0
   11.6869    6.3209    0.0000 C   0  0  0  0  0  0  0  0  0  0  0  0
   11.1389    7.7172    0.0000 C   0  0  0  0  0  0  0  0  0  0  0  0
    9.6556    7.9408    0.0000 C   0  0  0  0  0  0  0  0  0  0  0  0
    9.1076    9.3371    0.0000 O   0  0  0  0  0  0  0  0  0  0  0  0
    8.7204    6.7681    0.0000 C   0  0  0  0  0  0  0  0  0  0  0  0
    7.2372    6.9916    0.0000 C   0  0  0  0  0  0  0  0  0  0  0  0
    6.6892    8.3879    0.0000 O   0  0  0  0  0  0  0  0  0  0  0  0
    6.3019    5.8189    0.0000 C   0  0  0  0  0  0  0  0  0  0  0  0
    4.8187    6.0424    0.0000 C   0  0  0  0  0  0  0  0  0  0  0  0
    3.8835    4.8697    0.0000 C   0  0  0  0  0  0  0  0  0  0  0  0
    4.4315    3.4734    0.0000 C   0  0  0  0  0  0  0  0  0  0  0  0
    3.4962    2.3006    0.0000 C   0  0  0  0  0  0  0  0  0  0  0  0
    4.0442    0.9043    0.0000 O   0  0  0  0  0  0  0  0  0  0  0  0
    2.0130    2.5242    0.0000 N   0  0  0  0  0  0  0  0  0  0  0  0
    1.0777    1.3515    0.0000 C   0  0  0  0  0  0  0  0  0  0  0  0
    1.7286    0.0000    0.0000 C   0  0  0  0  0  0  0  0  0  0  0  0
    1.0777   -1.3515    0.0000 C   0  0  0  0  0  0  0  0  0  0  0  0
   -0.3846   -1.6852    0.0000 C   0  0  0  0  0  0  0  0  0  0  0  0
   -1.5574   -0.7500    0.0000 N   0  0  0  0  0  0  0  0  0  0  0  0
   -1.5574    0.7500    0.0000 C   0  0  0  0  0  0  0  0  0  0  0  0
   -0.3846    1.6852    0.0000 C   0  0  0  0  0  0  0  0  0  0  0  0
   -0.7184    3.1476    0.0000 N   0  0  0  0  0  0  0  0  0  0  0  0
   -2.1518    3.5898    0.0000 C   0  0  0  0  0  0  0  0  0  0  0  0
   -3.2514    2.5695    0.0000 O   0  0  0  0  0  0  0  0  0  0  0  0
   -2.4856    5.0522    0.0000 C   0  0  0  0  0  0  0  0  0  0  0  0
   -1.3860    6.0724    0.0000 C   0  0  0  0  0  0  0  0  0  0  0  0
   -1.7198    7.5348    0.0000 C   0  0  0  0  0  0  0  0  0  0  0  0
   -3.1531    7.9769    0.0000 N   0  0  0  0  0  0  0  0  0  0  0  0
   -4.2527    6.9567    0.0000 C   0  0  0  0  0  0  0  0  0  0  0  0
   -3.9189    5.4943    0.0000 C   0  0  0  0  0  0  0  0  0  0  0  0
    5.9147    3.2498    0.0000 C   0  0  0  0  0  0  0  0  0  0  0  0
    6.8499    4.4226    0.0000 C   0  0  0  0  0  0  0  0  0  0  0  0
    9.2684    5.3718    0.0000 C   0  0  0  0  0  0  0  0  0  0  0  0
    8.3332    4.1990    0.0000 F   0  0  0  0  0  0  0  0  0  0  0  0
  1  2  1  0
  2  3  1  0
  2  4  1  0
  4  5  1  0
  5  6  1  0
  6  7  1  0
  7  8  1  0
  8  9  1  0
  9 10  2  0
 10 11  1  0
 11 12  2  0
 12 13  1  0
 12 14  1  0
 14 15  1  0
 15 16  2  0
 15 17  1  0
 17 18  2  0
 18 19  1  0
 19 20  2  0
 20 21  1  0
 21 22  2  0
 21 23  1  0
 24 23  1  6
 24 25  1  0
 25 26  1  0
 26 27  1  0
 27 28  1  0
 28 29  1  0
 29 30  1  0
 30 31  1  1
 31 32  1  0
 32 33  2  0
 32 34  1  0
 34 35  2  0
 35 36  1  0
 36 37  2  0
 37 38  1  0
 38 39  2  0
 20 40  1  0
 40 41  2  0
 14 42  2  0
 42 43  1  0
  8  2  1  0
 42  9  1  0
 41 17  1  0
 30 24  1  0
 39 34  1  0
M  END
>  <Compound_ID>  (14) 
CHEMBL536485

>  <Active>  (14) 
1

>  <Smiles>  (14) 
CC1(C)CCCNC1c1ccc(O)c(C(=O)c2ccc(C(=O)N[C@@H]3CCCNC[C@H]3NC(=O)c3ccncc3)cc2)c1F

>  <canonical_smi>  (14) 
CC1(C)CCCNC1c1ccc(O)c(C(=O)c2ccc(C(=O)N[C@@H]3CCCNC[C@H]3NC(=O)c3ccncc3)cc2)c1F

>  <Set>  (14) 
G1 active

>  <Set_type>  (14) 
G1

>  <MW>  (14) 
587.7

>  <HBD>  (14) 
5

>  <HBA>  (14) 
7

>  <NRB>  (14) 
7

>  <NR>  (14) 
5

>  <NAR>  (14) 
3

>  <PSA>  (14) 
132.45

>  <Standard Type>  (14) 
nan

>  <Standard Relation>  (14) 
nan

>  <Standard Units>  (14) 
nan

>  <Standard Value>  (14) 
nan

>  <Assay ChEMBL ID>  (14) 
nan

>  <Assay Description>  (14) 
nan

>  <BAO Label>  (14) 
nan

>  <bits>  (14) 
<rdkit.DataStructs.cDataStructs.ExplicitBitVect object at 0x000001A323074660>

>  <Group>  (14) 
G2

$$$$

     RDKit          2D

 40 45  0  0  0  0  0  0  0  0999 V2000
  -15.5257    4.9171    0.0000 C   0  0  0  0  0  0  0  0  0  0  0  0
  -14.4110    3.9134    0.0000 C   0  0  0  0  0  0  0  0  0  0  0  0
  -12.9844    4.3769    0.0000 C   0  0  0  0  0  0  0  0  0  0  0  0
  -14.7229    2.4461    0.0000 C   0  0  0  0  0  0  0  0  0  0  0  0
  -13.6082    1.4425    0.0000 C   0  0  0  0  0  0  0  0  0  0  0  0
  -12.1816    1.9060    0.0000 N   0  0  0  0  0  0  0  0  0  0  0  0
  -11.0669    0.9023    0.0000 C   0  0  0  0  0  0  0  0  0  0  0  0
   -9.6403    1.3658    0.0000 C   0  0  0  0  0  0  0  0  0  0  0  0
   -8.5256    0.3621    0.0000 C   0  0  0  0  0  0  0  0  0  0  0  0
   -7.0990    0.8256    0.0000 C   0  0  0  0  0  0  0  0  0  0  0  0
   -6.7871    2.2929    0.0000 C   0  0  0  0  0  0  0  0  0  0  0  0
   -7.9018    3.2966    0.0000 C   0  0  0  0  0  0  0  0  0  0  0  0
   -9.3284    2.8330    0.0000 C   0  0  0  0  0  0  0  0  0  0  0  0
  -11.3787   -0.5649    0.0000 C   0  0  0  0  0  0  0  0  0  0  0  0
  -10.2640   -1.5686    0.0000 C   0  0  0  0  0  0  0  0  0  0  0  0
  -10.5759   -3.0359    0.0000 C   0  0  0  0  0  0  0  0  0  0  0  0
   -9.4612   -4.0396    0.0000 C   0  0  0  0  0  0  0  0  0  0  0  0
   -8.0346   -3.5760    0.0000 C   0  0  0  0  0  0  0  0  0  0  0  0
   -6.9199   -4.5797    0.0000 C   0  0  0  0  0  0  0  0  0  0  0  0
   -5.4933   -4.1162    0.0000 N   0  0  0  0  0  0  0  0  0  0  0  0
   -4.3786   -5.1199    0.0000 C   0  0  0  0  0  0  0  0  0  0  0  0
   -2.9520   -4.6564    0.0000 C   0  0  0  0  0  0  0  0  0  0  0  0
   -2.6401   -3.1891    0.0000 C   0  0  0  0  0  0  0  0  0  0  0  0
   -1.2135   -2.7256    0.0000 N   0  0  0  0  0  0  0  0  0  0  0  0
   -0.0000   -3.6073    0.0000 C   0  0  0  0  0  0  0  0  0  0  0  0
    0.0000   -5.1073    0.0000 O   0  0  0  0  0  0  0  0  0  0  0  0
    1.2135   -2.7256    0.0000 N   0  0  0  0  0  0  0  0  0  0  0  0
    0.7500   -1.2990    0.0000 C   0  0  0  0  0  0  0  0  0  0  0  0
    1.5000    0.0000    0.0000 C   0  0  0  0  0  0  0  0  0  0  0  0
    0.7500    1.2990    0.0000 C   0  0  0  0  0  0  0  0  0  0  0  0
   -0.7500    1.2990    0.0000 C   0  0  0  0  0  0  0  0  0  0  0  0
   -1.5000    0.0000    0.0000 C   0  0  0  0  0  0  0  0  0  0  0  0
   -0.7500   -1.2990    0.0000 C   0  0  0  0  0  0  0  0  0  0  0  0
   -3.7548   -2.1855    0.0000 C   0  0  0  0  0  0  0  0  0  0  0  0
   -5.1814   -2.6490    0.0000 C   0  0  0  0  0  0  0  0  0  0  0  0
   -7.7227   -2.1088    0.0000 C   0  0  0  0  0  0  0  0  0  0  0  0
   -8.8374   -1.1051    0.0000 C   0  0  0  0  0  0  0  0  0  0  0  0
  -12.8053   -1.0285    0.0000 N   0  0  0  0  0  0  0  0  0  0  0  0
  -13.9200   -0.0248    0.0000 C   0  0  0  0  0  0  0  0  0  0  0  0
  -15.3466   -0.4883    0.0000 O   0  0  0  0  0  0  0  0  0  0  0  0
  1  2  1  0
  2  3  1  0
  2  4  1  0
  4  5  1  0
  5  6  2  0
  6  7  1  0
  7  8  1  0
  8  9  2  0
  9 10  1  0
 10 11  2  0
 11 12  1  0
 12 13  2  0
  7 14  2  0
 14 15  1  0
 15 16  2  0
 16 17  1  0
 17 18  2  0
 18 19  1  0
 19 20  1  0
 20 21  1  0
 21 22  1  0
 22 23  1  0
 23 24  1  0
 24 25  1  0
 25 26  1  0
 25 27  2  0
 27 28  1  0
 28 29  2  0
 29 30  1  0
 30 31  2  0
 31 32  1  0
 32 33  2  0
 23 34  1  0
 34 35  1  0
 18 36  1  0
 36 37  2  0
 14 38  1  0
 38 39  1  0
 39 40  1  0
 39  5  1  0
 13  8  1  0
 37 15  1  0
 35 20  1  0
 33 24  1  0
 33 28  1  0
M  END
>  <Compound_ID>  (15) 
CHEMBL369506

>  <Active>  (15) 
1

>  <Smiles>  (15) 
CC(C)CC1=NC(c2ccccc2)=C(c2ccc(CN3CCC(n4c(O)nc5ccccc54)CC3)cc2)NC1O

>  <canonical_smi>  (15) 
CC(C)CC1=NC(c2ccccc2)=C(c2ccc(CN3CCC(n4c(O)nc5ccccc54)CC3)cc2)NC1O

>  <Set>  (15) 
G1 active

>  <Set_type>  (15) 
G1

>  <MW>  (15) 
535.69

>  <HBD>  (15) 
3

>  <HBA>  (15) 
5

>  <NRB>  (15) 
7

>  <NR>  (15) 
6

>  <NAR>  (15) 
4

>  <PSA>  (15) 
85.91

>  <Standard Type>  (15) 
nan

>  <Standard Relation>  (15) 
nan

>  <Standard Units>  (15) 
nan

>  <Standard Value>  (15) 
nan

>  <Assay ChEMBL ID>  (15) 
nan

>  <Assay Description>  (15) 
nan

>  <BAO Label>  (15) 
nan

>  <bits>  (15) 
<rdkit.DataStructs.cDataStructs.ExplicitBitVect object at 0x000001A323074740>

>  <Group>  (15) 
G2

$$$$

     RDKit          2D

 45 52  0  0  0  0  0  0  0  0999 V2000
    1.8478   -6.4639    0.0000 C   0  0  0  0  0  0  0  0  0  0  0  0
    2.0046   -4.9721    0.0000 N   0  0  0  0  0  0  0  0  0  0  0  0
    3.3037   -4.2221    0.0000 N   0  0  0  0  0  0  0  0  0  0  0  0
    2.9918   -2.7549    0.0000 N   0  0  0  0  0  0  0  0  0  0  0  0
    1.5000   -2.5981    0.0000 C   0  0  0  0  0  0  0  0  0  0  0  0
    0.7500   -1.2990    0.0000 C   0  0  0  0  0  0  0  0  0  0  0  0
    1.5000    0.0000    0.0000 C   0  0  0  0  0  0  0  0  0  0  0  0
    0.7500    1.2990    0.0000 C   0  0  0  0  0  0  0  0  0  0  0  0
   -0.7500    1.2990    0.0000 C   0  0  0  0  0  0  0  0  0  0  0  0
   -1.5000    2.5981    0.0000 N   0  0  0  0  0  0  0  0  0  0  0  0
   -3.0000    2.5981    0.0000 C   0  0  0  0  0  0  0  0  0  0  0  0
   -3.7500    3.8971    0.0000 C   0  0  0  0  0  0  0  0  0  0  0  0
   -3.0000    5.1962    0.0000 C   0  0  0  0  0  0  0  0  0  0  0  0
   -3.7500    6.4952    0.0000 C   0  0  0  0  0  0  0  0  0  0  0  0
   -5.2500    6.4952    0.0000 C   0  0  0  0  0  0  0  0  0  0  0  0
   -6.0000    5.1962    0.0000 C   0  0  0  0  0  0  0  0  0  0  0  0
   -5.2500    3.8971    0.0000 C   0  0  0  0  0  0  0  0  0  0  0  0
   -3.7500    1.2990    0.0000 C   0  0  0  0  0  0  0  0  0  0  0  0
   -5.2500    1.2990    0.0000 C   0  0  0  0  0  0  0  0  0  0  0  0
   -6.0000    2.5981    0.0000 C   0  0  0  0  0  0  0  0  0  0  0  0
   -7.5000    2.5981    0.0000 C   0  0  0  0  0  0  0  0  0  0  0  0
   -8.2500    1.2990    0.0000 C   0  0  0  0  0  0  0  0  0  0  0  0
   -9.7500    1.2990    0.0000 C   0  0  0  0  0  0  0  0  0  0  0  0
  -10.5000    2.5981    0.0000 N   0  0  0  0  0  0  0  0  0  0  0  0
   -9.7500    3.8971    0.0000 C   0  0  0  0  0  0  0  0  0  0  0  0
  -10.5000    5.1962    0.0000 C   0  0  0  0  0  0  0  0  0  0  0  0
  -12.0000    5.1962    0.0000 C   0  0  0  0  0  0  0  0  0  0  0  0
  -12.7500    6.4952    0.0000 N   0  0  0  0  0  0  0  0  0  0  0  0
  -12.1399    7.8655    0.0000 C   0  0  0  0  0  0  0  0  0  0  0  0
  -10.6727    8.1774    0.0000 O   0  0  0  0  0  0  0  0  0  0  0  0
  -13.2546    8.8692    0.0000 N   0  0  0  0  0  0  0  0  0  0  0  0
  -14.5537    8.1192    0.0000 C   0  0  0  0  0  0  0  0  0  0  0  0
  -15.9802    8.5827    0.0000 C   0  0  0  0  0  0  0  0  0  0  0  0
  -17.0950    7.5790    0.0000 C   0  0  0  0  0  0  0  0  0  0  0  0
  -16.7831    6.1118    0.0000 C   0  0  0  0  0  0  0  0  0  0  0  0
  -15.3565    5.6483    0.0000 C   0  0  0  0  0  0  0  0  0  0  0  0
  -14.2418    6.6520    0.0000 C   0  0  0  0  0  0  0  0  0  0  0  0
  -12.7500    3.8971    0.0000 C   0  0  0  0  0  0  0  0  0  0  0  0
  -12.0000    2.5981    0.0000 C   0  0  0  0  0  0  0  0  0  0  0  0
   -7.5000    0.0000    0.0000 C   0  0  0  0  0  0  0  0  0  0  0  0
   -6.0000    0.0000    0.0000 C   0  0  0  0  0  0  0  0  0  0  0  0
   -3.0000    0.0000    0.0000 N   0  0  0  0  0  0  0  0  0  0  0  0
   -1.5000    0.0000    0.0000 C   0  0  0  0  0  0  0  0  0  0  0  0
   -0.7500   -1.2990    0.0000 C   0  0  0  0  0  0  0  0  0  0  0  0
    0.8899   -3.9684    0.0000 N   0  0  0  0  0  0  0  0  0  0  0  0
  1  2  1  0
  2  3  1  0
  3  4  2  0
  4  5  1  0
  5  6  1  0
  6  7  2  0
  7  8  1  0
  8  9  2  0
  9 10  1  0
 10 11  2  0
 11 12  1  0
 12 13  2  0
 13 14  1  0
 14 15  2  0
 15 16  1  0
 16 17  2  0
 11 18  1  0
 18 19  1  0
 19 20  2  0
 20 21  1  0
 21 22  2  0
 22 23  1  0
 23 24  1  0
 24 25  1  0
 25 26  1  0
 26 27  1  0
 27 28  1  0
 28 29  1  0
 29 30  1  0
 29 31  2  0
 31 32  1  0
 32 33  2  0
 33 34  1  0
 34 35  2  0
 35 36  1  0
 36 37  2  0
 27 38  1  0
 38 39  1  0
 22 40  1  0
 40 41  2  0
 18 42  2  0
 42 43  1  0
 43 44  2  0
  5 45  2  0
 45  2  1  0
 44  6  1  0
 43  9  1  0
 17 12  1  0
 41 19  1  0
 39 24  1  0
 37 28  1  0
 37 32  1  0
M  END
>  <Compound_ID>  (16) 
CHEMBL180058

>  <Active>  (16) 
1

>  <Smiles>  (16) 
Cn1nnc(-c2ccc3nc(-c4ccccc4)c(-c4ccc(CN5CCC(n6c(O)nc7ccccc76)CC5)cc4)nc3c2)n1

>  <canonical_smi>  (16) 
Cn1nnc(-c2ccc3nc(-c4ccccc4)c(-c4ccc(CN5CCC(n6c(O)nc7ccccc76)CC5)cc4)nc3c2)n1

>  <Set>  (16) 
G1 active

>  <Set_type>  (16) 
G1

>  <MW>  (16) 
593.7

>  <HBD>  (16) 
1

>  <HBA>  (16) 
8

>  <NRB>  (16) 
6

>  <NR>  (16) 
8

>  <NAR>  (16) 
7

>  <PSA>  (16) 
110.67

>  <Standard Type>  (16) 
nan

>  <Standard Relation>  (16) 
nan

>  <Standard Units>  (16) 
nan

>  <Standard Value>  (16) 
nan

>  <Assay ChEMBL ID>  (16) 
nan

>  <Assay Description>  (16) 
nan

>  <BAO Label>  (16) 
nan

>  <bits>  (16) 
<rdkit.DataStructs.cDataStructs.ExplicitBitVect object at 0x000001A323074820>

>  <Group>  (16) 
G2

$$$$

     RDKit          2D

 34 37  0  0  0  0  0  0  0  0999 V2000
   -3.7548   -2.1855    0.0000 C   0  0  0  0  0  0  0  0  0  0  0  0
   -2.6401   -3.1891    0.0000 C   0  0  0  0  0  0  0  0  0  0  0  0
   -1.2135   -2.7256    0.0000 N   0  0  0  0  0  0  0  0  0  0  0  0
   -0.0000   -3.6073    0.0000 C   0  0  0  0  0  0  0  0  0  0  0  0
   -0.0000   -5.1073    0.0000 C   0  0  0  0  0  0  0  0  0  0  0  0
    1.2135   -5.9890    0.0000 N   0  0  0  0  0  0  0  0  0  0  0  0
    0.7500   -7.4156    0.0000 O   0  0  0  0  0  0  0  0  0  0  0  0
   -0.7500   -7.4156    0.0000 N   0  0  0  0  0  0  0  0  0  0  0  0
   -1.2135   -5.9890    0.0000 C   0  0  0  0  0  0  0  0  0  0  0  0
   -2.6401   -5.5255    0.0000 N   0  0  0  0  0  0  0  0  0  0  0  0
    1.2135   -2.7256    0.0000 N   0  0  0  0  0  0  0  0  0  0  0  0
    0.7500   -1.2990    0.0000 C   0  0  0  0  0  0  0  0  0  0  0  0
    1.5000    0.0000    0.0000 C   0  0  0  0  0  0  0  0  0  0  0  0
    3.0000    0.0000    0.0000 C   0  0  0  0  0  0  0  0  0  0  0  0
    4.5000    0.0000    0.0000 C   0  0  0  0  0  0  0  0  0  0  0  0
    6.0000    0.0000    0.0000 C   0  0  0  0  0  0  0  0  0  0  0  0
    6.0000   -1.5000    0.0000 C   0  0  0  0  0  0  0  0  0  0  0  0
    6.0000    1.5000    0.0000 C   0  0  0  0  0  0  0  0  0  0  0  0
    7.5000    0.0000    0.0000 O   0  0  0  0  0  0  0  0  0  0  0  0
    0.7500    1.2990    0.0000 N   0  0  0  0  0  0  0  0  0  0  0  0
   -0.7500    1.2990    0.0000 C   0  0  0  0  0  0  0  0  0  0  0  0
   -1.5000    2.5981    0.0000 O   0  0  0  0  0  0  0  0  0  0  0  0
   -0.7500    3.8971    0.0000 C   0  0  0  0  0  0  0  0  0  0  0  0
   -1.5000    5.1962    0.0000 C   0  0  0  0  0  0  0  0  0  0  0  0
   -0.7500    6.4952    0.0000 C   0  0  0  0  0  0  0  0  0  0  0  0
   -1.5000    7.7942    0.0000 N   0  0  0  0  0  0  0  0  0  0  0  0
    0.7500    3.8971    0.0000 C   0  0  0  0  0  0  0  0  0  0  0  0
    1.5000    2.5981    0.0000 C   0  0  0  0  0  0  0  0  0  0  0  0
    3.0000    2.5981    0.0000 C   0  0  0  0  0  0  0  0  0  0  0  0
    3.7500    3.8971    0.0000 C   0  0  0  0  0  0  0  0  0  0  0  0
    3.0000    5.1962    0.0000 C   0  0  0  0  0  0  0  0  0  0  0  0
    1.5000    5.1962    0.0000 C   0  0  0  0  0  0  0  0  0  0  0  0
   -1.5000    0.0000    0.0000 C   0  0  0  0  0  0  0  0  0  0  0  0
   -0.7500   -1.2990    0.0000 C   0  0  0  0  0  0  0  0  0  0  0  0
  1  2  1  0
  2  3  1  0
  3  4  1  0
  4  5  1  0
  5  6  2  0
  6  7  1  0
  7  8  1  0
  8  9  2  0
  9 10  1  0
  4 11  2  0
 11 12  1  0
 12 13  2  0
 13 14  1  0
 14 15  3  0
 15 16  1  0
 16 17  1  0
 16 18  1  0
 16 19  1  0
 13 20  1  0
 20 21  2  0
 21 22  1  0
 22 23  1  0
 23 24  1  1
 24 25  1  0
 25 26  1  0
 23 27  1  0
 27 28  2  0
 28 29  1  0
 29 30  2  0
 30 31  1  0
 31 32  2  0
 21 33  1  0
 33 34  2  0
 34  3  1  0
  9  5  1  0
 34 12  1  0
 32 27  1  0
M  END
>  <Compound_ID>  (17) 
CHEMBL1099297

>  <Active>  (17) 
1

>  <Smiles>  (17) 
CCn1c(-c2nonc2N)nc2c(C#CC(C)(C)O)nc(O[C@@H](CCN)c3ccccc3)cc21

>  <canonical_smi>  (17) 
CCn1c(-c2nonc2N)nc2c(C#CC(C)(C)O)nc(O[C@@H](CCN)c3ccccc3)cc21

>  <Set>  (17) 
G2 active

>  <Set_type>  (17) 
Train

>  <MW>  (17) 
461.53

>  <HBD>  (17) 
3

>  <HBA>  (17) 
9

>  <NRB>  (17) 
7

>  <NR>  (17) 
4

>  <NAR>  (17) 
4

>  <PSA>  (17) 
151.13

>  <Standard Type>  (17) 
nan

>  <Standard Relation>  (17) 
nan

>  <Standard Units>  (17) 
nan

>  <Standard Value>  (17) 
nan

>  <Assay ChEMBL ID>  (17) 
nan

>  <Assay Description>  (17) 
nan

>  <BAO Label>  (17) 
nan

>  <bits>  (17) 
<rdkit.DataStructs.cDataStructs.ExplicitBitVect object at 0x000001A323074970>

>  <Group>  (17) 
G2

$$$$

     RDKit          2D

 32 35  0  0  0  0  0  0  0  0999 V2000
   -3.7548   -2.1855    0.0000 C   0  0  0  0  0  0  0  0  0  0  0  0
   -2.6401   -3.1891    0.0000 C   0  0  0  0  0  0  0  0  0  0  0  0
   -1.2135   -2.7256    0.0000 C   0  0  0  0  0  0  0  0  0  0  0  0
   -0.0000   -3.6073    0.0000 C   0  0  0  0  0  0  0  0  0  0  0  0
    0.0000   -5.1073    0.0000 O   0  0  0  0  0  0  0  0  0  0  0  0
    1.2135   -2.7256    0.0000 N   0  0  0  0  0  0  0  0  0  0  0  0
    0.7500   -1.2990    0.0000 C   0  0  0  0  0  0  0  0  0  0  0  0
    1.5000    0.0000    0.0000 C   0  0  0  0  0  0  0  0  0  0  0  0
    0.7500    1.2990    0.0000 C   0  0  0  0  0  0  0  0  0  0  0  0
   -0.7500    1.2990    0.0000 C   0  0  0  0  0  0  0  0  0  0  0  0
   -1.5000    2.5981    0.0000 N   0  0  0  0  0  0  0  0  0  0  0  0
   -0.7500    3.8971    0.0000 C   0  0  0  0  0  0  0  0  0  0  0  0
   -1.5000    5.1962    0.0000 N   0  0  0  0  0  0  0  0  0  0  0  0
    0.7500    3.8971    0.0000 O   0  0  0  0  0  0  0  0  0  0  0  0
   -1.5000    0.0000    0.0000 C   0  0  0  0  0  0  0  0  0  0  0  0
   -0.7500   -1.2990    0.0000 C   0  0  0  0  0  0  0  0  0  0  0  0
   -2.9520   -4.6564    0.0000 C   0  0  0  0  0  0  0  0  0  0  0  0
   -1.9483   -5.7711    0.0000 C   0  0  0  0  0  0  0  0  0  0  0  0
   -2.6983   -7.0701    0.0000 C   0  0  0  0  0  0  0  0  0  0  0  0
   -2.0882   -8.4404    0.0000 C   0  0  0  0  0  0  0  0  0  0  0  0
   -2.9699   -9.6540    0.0000 N   0  0  0  0  0  0  0  0  0  0  0  0
   -2.3597  -11.0243    0.0000 C   0  0  0  0  0  0  0  0  0  0  0  0
   -0.8680  -11.1811    0.0000 O   0  0  0  0  0  0  0  0  0  0  0  0
   -3.2414  -12.2378    0.0000 C   0  0  0  0  0  0  0  0  0  0  0  0
   -4.7332  -12.0810    0.0000 C   0  0  0  0  0  0  0  0  0  0  0  0
   -5.6149  -13.2945    0.0000 C   0  0  0  0  0  0  0  0  0  0  0  0
   -5.0048  -14.6649    0.0000 N   0  0  0  0  0  0  0  0  0  0  0  0
   -5.8865  -15.8784    0.0000 C   0  0  0  0  0  0  0  0  0  0  0  0
   -3.5130  -14.8217    0.0000 C   0  0  0  0  0  0  0  0  0  0  0  0
   -2.6313  -13.6081    0.0000 C   0  0  0  0  0  0  0  0  0  0  0  0
   -4.1655   -6.7583    0.0000 C   0  0  0  0  0  0  0  0  0  0  0  0
   -4.3223   -5.2665    0.0000 N   0  0  0  0  0  0  0  0  0  0  0  0
  1  2  1  0
  2  3  2  0
  3  4  1  0
  4  5  2  0
  4  6  1  0
  6  7  1  0
  7  8  2  0
  8  9  1  0
  9 10  2  0
 10 11  1  0
 11 12  1  0
 12 13  1  0
 12 14  2  0
 10 15  1  0
 15 16  2  0
  2 17  1  0
 17 18  2  0
 18 19  1  0
 19 20  1  0
 20 21  1  0
 21 22  1  0
 22 23  2  0
 22 24  1  0
 24 25  1  0
 25 26  1  0
 26 27  1  0
 27 28  1  0
 27 29  1  0
 29 30  1  0
 19 31  2  0
 31 32  1  0
 16  3  1  0
 32 17  1  0
 16  7  1  0
 30 24  1  0
M  END
>  <Compound_ID>  (18) 
CHEMBL228810

>  <Active>  (18) 
1

>  <Smiles>  (18) 
C/C(=C1/C(=O)Nc2ccc(NC(N)=O)cc21)c1cc(CNC(=O)C2CCN(C)CC2)c[nH]1

>  <canonical_smi>  (18) 
C/C(=C1/C(=O)Nc2ccc(NC(N)=O)cc21)c1cc(CNC(=O)C2CCN(C)CC2)c[nH]1

>  <Set>  (18) 
G2 active

>  <Set_type>  (18) 
Train

>  <MW>  (18) 
436.52

>  <HBD>  (18) 
5

>  <HBA>  (18) 
4

>  <NRB>  (18) 
5

>  <NR>  (18) 
4

>  <NAR>  (18) 
2

>  <PSA>  (18) 
132.35

>  <Standard Type>  (18) 
nan

>  <Standard Relation>  (18) 
nan

>  <Standard Units>  (18) 
nan

>  <Standard Value>  (18) 
nan

>  <Assay ChEMBL ID>  (18) 
nan

>  <Assay Description>  (18) 
nan

>  <BAO Label>  (18) 
nan

>  <bits>  (18) 
<rdkit.DataStructs.cDataStructs.ExplicitBitVect object at 0x000001A3230749E0>

>  <Group>  (18) 
G2

$$$$

     RDKit          2D

 37 41  0  0  0  0  0  0  0  0999 V2000
    5.2500   -1.2990    0.0000 N   0  0  0  0  0  0  0  0  0  0  0  0
    3.7500   -1.2990    0.0000 C   0  0  0  0  0  0  0  0  0  0  0  0
    3.0000   -2.5981    0.0000 O   0  0  0  0  0  0  0  0  0  0  0  0
    3.0000    0.0000    0.0000 N   0  0  0  0  0  0  0  0  0  0  0  0
    1.5000    0.0000    0.0000 C   0  0  0  0  0  0  0  0  0  0  0  0
    0.7500   -1.2990    0.0000 C   0  0  0  0  0  0  0  0  0  0  0  0
   -0.7500   -1.2990    0.0000 C   0  0  0  0  0  0  0  0  0  0  0  0
   -1.5000    0.0000    0.0000 C   0  0  0  0  0  0  0  0  0  0  0  0
   -0.7500    1.2990    0.0000 C   0  0  0  0  0  0  0  0  0  0  0  0
    0.7500    1.2990    0.0000 C   0  0  0  0  0  0  0  0  0  0  0  0
   -1.7537    2.4138    0.0000 C   0  0  0  0  0  0  0  0  0  0  0  0
   -1.4418    3.8810    0.0000 C   0  0  0  0  0  0  0  0  0  0  0  0
   -2.5565    4.8847    0.0000 C   0  0  0  0  0  0  0  0  0  0  0  0
   -4.0238    4.5728    0.0000 C   0  0  0  0  0  0  0  0  0  0  0  0
   -4.7738    5.8718    0.0000 C   0  0  0  0  0  0  0  0  0  0  0  0
   -6.2655    6.0286    0.0000 C   0  0  0  0  0  0  0  0  0  0  0  0
   -6.8757    7.3990    0.0000 C   0  0  0  0  0  0  0  0  0  0  0  0
   -8.3674    7.5557    0.0000 C   0  0  0  0  0  0  0  0  0  0  0  0
   -9.2491    6.3422    0.0000 C   0  0  0  0  0  0  0  0  0  0  0  0
   -8.6390    4.9719    0.0000 C   0  0  0  0  0  0  0  0  0  0  0  0
   -9.5207    3.7584    0.0000 C   0  0  0  0  0  0  0  0  0  0  0  0
   -8.9106    2.3881    0.0000 O   0  0  0  0  0  0  0  0  0  0  0  0
  -11.0125    3.9152    0.0000 N   0  0  0  0  0  0  0  0  0  0  0  0
  -11.8941    2.7016    0.0000 C   0  0  0  0  0  0  0  0  0  0  0  0
  -13.3859    2.8584    0.0000 C   0  0  0  0  0  0  0  0  0  0  0  0
  -14.2676    1.6449    0.0000 N   0  0  0  0  0  0  0  0  0  0  0  0
  -15.7594    1.8017    0.0000 C   0  0  0  0  0  0  0  0  0  0  0  0
  -16.6411    0.5882    0.0000 C   0  0  0  0  0  0  0  0  0  0  0  0
  -16.0310   -0.7821    0.0000 C   0  0  0  0  0  0  0  0  0  0  0  0
  -14.5392   -0.9389    0.0000 C   0  0  0  0  0  0  0  0  0  0  0  0
  -13.6575    0.2746    0.0000 C   0  0  0  0  0  0  0  0  0  0  0  0
   -7.1472    4.8151    0.0000 C   0  0  0  0  0  0  0  0  0  0  0  0
   -3.7701    6.9866    0.0000 C   0  0  0  0  0  0  0  0  0  0  0  0
   -2.3998    6.3765    0.0000 N   0  0  0  0  0  0  0  0  0  0  0  0
   -3.1240    1.8037    0.0000 C   0  0  0  0  0  0  0  0  0  0  0  0
   -4.4231    2.5537    0.0000 O   0  0  0  0  0  0  0  0  0  0  0  0
   -2.9672    0.3119    0.0000 N   0  0  0  0  0  0  0  0  0  0  0  0
  1  2  1  0
  2  3  2  0
  2  4  1  0
  4  5  1  0
  5  6  2  0
  6  7  1  0
  7  8  2  0
  8  9  1  0
  9 10  2  0
  9 11  1  0
 11 12  2  0
 12 13  1  0
 13 14  2  0
 14 15  1  0
 15 16  1  0
 16 17  2  0
 17 18  1  0
 18 19  2  0
 19 20  1  0
 20 21  1  0
 21 22  2  0
 21 23  1  0
 23 24  1  0
 24 25  1  0
 25 26  1  0
 26 27  1  0
 27 28  1  0
 28 29  1  0
 29 30  1  0
 30 31  1  0
 20 32  2  0
 15 33  2  0
 33 34  1  0
 11 35  1  0
 35 36  2  0
 35 37  1  0
 10  5  1  0
 34 13  1  0
 37  8  1  0
 32 16  1  0
 31 26  1  0
M  END
>  <Compound_ID>  (19) 
CHEMBL425650

>  <Active>  (19) 
1

>  <Smiles>  (19) 
NC(=O)Nc1ccc2c(c1)/C(=C/c1cc(-c3cccc(C(=O)NCCN4CCCCC4)c3)c[nH]1)C(=O)N2

>  <canonical_smi>  (19) 
NC(=O)Nc1ccc2c(c1)/C(=C/c1cc(-c3cccc(C(=O)NCCN4CCCCC4)c3)c[nH]1)C(=O)N2

>  <Set>  (19) 
G2 active

>  <Set_type>  (19) 
Train

>  <MW>  (19) 
498.59

>  <HBD>  (19) 
5

>  <HBA>  (19) 
4

>  <NRB>  (19) 
7

>  <NR>  (19) 
5

>  <NAR>  (19) 
3

>  <PSA>  (19) 
132.35

>  <Standard Type>  (19) 
nan

>  <Standard Relation>  (19) 
nan

>  <Standard Units>  (19) 
nan

>  <Standard Value>  (19) 
nan

>  <Assay ChEMBL ID>  (19) 
nan

>  <Assay Description>  (19) 
nan

>  <BAO Label>  (19) 
nan

>  <bits>  (19) 
<rdkit.DataStructs.cDataStructs.ExplicitBitVect object at 0x000001A323074AC0>

>  <Group>  (19) 
G2

$$$$

     RDKit          2D

 35 38  0  0  0  0  0  0  0  0999 V2000
   -3.7548   -2.1855    0.0000 C   0  0  0  0  0  0  0  0  0  0  0  0
   -2.6401   -3.1891    0.0000 C   0  0  0  0  0  0  0  0  0  0  0  0
   -1.2135   -2.7256    0.0000 N   0  0  0  0  0  0  0  0  0  0  0  0
   -0.0000   -3.6073    0.0000 C   0  0  0  0  0  0  0  0  0  0  0  0
   -0.0000   -5.1073    0.0000 C   0  0  0  0  0  0  0  0  0  0  0  0
    1.2135   -5.9890    0.0000 N   0  0  0  0  0  0  0  0  0  0  0  0
    0.7500   -7.4156    0.0000 O   0  0  0  0  0  0  0  0  0  0  0  0
   -0.7500   -7.4156    0.0000 N   0  0  0  0  0  0  0  0  0  0  0  0
   -1.2135   -5.9890    0.0000 C   0  0  0  0  0  0  0  0  0  0  0  0
   -2.6401   -5.5255    0.0000 N   0  0  0  0  0  0  0  0  0  0  0  0
    1.2135   -2.7256    0.0000 N   0  0  0  0  0  0  0  0  0  0  0  0
    0.7500   -1.2990    0.0000 C   0  0  0  0  0  0  0  0  0  0  0  0
    1.5000    0.0000    0.0000 C   0  0  0  0  0  0  0  0  0  0  0  0
    3.0000    0.0000    0.0000 C   0  0  0  0  0  0  0  0  0  0  0  0
    4.5000    0.0000    0.0000 C   0  0  0  0  0  0  0  0  0  0  0  0
    6.0000    0.0000    0.0000 C   0  0  0  0  0  0  0  0  0  0  0  0
    6.0000   -1.5000    0.0000 C   0  0  0  0  0  0  0  0  0  0  0  0
    6.0000    1.5000    0.0000 C   0  0  0  0  0  0  0  0  0  0  0  0
    7.5000    0.0000    0.0000 O   0  0  0  0  0  0  0  0  0  0  0  0
    0.7500    1.2990    0.0000 N   0  0  0  0  0  0  0  0  0  0  0  0
   -0.7500    1.2990    0.0000 C   0  0  0  0  0  0  0  0  0  0  0  0
   -1.5000    0.0000    0.0000 C   0  0  0  0  0  0  0  0  0  0  0  0
   -3.0000    0.0000    0.0000 O   0  0  0  0  0  0  0  0  0  0  0  0
   -3.7500    1.2990    0.0000 C   0  0  0  0  0  0  0  0  0  0  0  0
   -5.2500    1.2990    0.0000 C   0  0  0  0  0  0  0  0  0  0  0  0
   -6.0000    2.5981    0.0000 C   0  0  0  0  0  0  0  0  0  0  0  0
   -5.2500    3.8971    0.0000 N   0  0  0  0  0  0  0  0  0  0  0  0
   -7.5000    2.5981    0.0000 C   0  0  0  0  0  0  0  0  0  0  0  0
   -8.2500    3.8971    0.0000 C   0  0  0  0  0  0  0  0  0  0  0  0
   -7.5000    5.1962    0.0000 C   0  0  0  0  0  0  0  0  0  0  0  0
   -8.2500    6.4952    0.0000 C   0  0  0  0  0  0  0  0  0  0  0  0
   -9.7500    6.4952    0.0000 C   0  0  0  0  0  0  0  0  0  0  0  0
  -10.5000    5.1962    0.0000 C   0  0  0  0  0  0  0  0  0  0  0  0
   -9.7500    3.8971    0.0000 C   0  0  0  0  0  0  0  0  0  0  0  0
   -0.7500   -1.2990    0.0000 C   0  0  0  0  0  0  0  0  0  0  0  0
  1  2  1  0
  2  3  1  0
  3  4  1  0
  4  5  1  0
  5  6  2  0
  6  7  1  0
  7  8  1  0
  8  9  2  0
  9 10  1  0
  4 11  2  0
 11 12  1  0
 12 13  2  0
 13 14  1  0
 14 15  3  0
 15 16  1  0
 16 17  1  0
 16 18  1  0
 16 19  1  0
 13 20  1  0
 20 21  2  0
 21 22  1  0
 22 23  1  0
 23 24  1  0
 24 25  1  0
 25 26  1  0
 26 27  1  6
 26 28  1  0
 28 29  1  0
 29 30  2  0
 30 31  1  0
 31 32  2  0
 32 33  1  0
 33 34  2  0
 22 35  2  0
 35  3  1  0
  9  5  1  0
 35 12  1  0
 34 29  1  0
M  END
>  <Compound_ID>  (20) 
CHEMBL523859

>  <Active>  (20) 
1

>  <Smiles>  (20) 
CCn1c(-c2nonc2N)nc2c(C#CC(C)(C)O)ncc(OCC[C@@H](N)Cc3ccccc3)c21

>  <canonical_smi>  (20) 
CCn1c(-c2nonc2N)nc2c(C#CC(C)(C)O)ncc(OCC[C@@H](N)Cc3ccccc3)c21

>  <Set>  (20) 
G2 active

>  <Set_type>  (20) 
Train

>  <MW>  (20) 
475.55

>  <HBD>  (20) 
3

>  <HBA>  (20) 
9

>  <NRB>  (20) 
8

>  <NR>  (20) 
4

>  <NAR>  (20) 
4

>  <PSA>  (20) 
151.13

>  <Standard Type>  (20) 
nan

>  <Standard Relation>  (20) 
nan

>  <Standard Units>  (20) 
nan

>  <Standard Value>  (20) 
nan

>  <Assay ChEMBL ID>  (20) 
nan

>  <Assay Description>  (20) 
nan

>  <BAO Label>  (20) 
nan

>  <bits>  (20) 
<rdkit.DataStructs.cDataStructs.ExplicitBitVect object at 0x000001A323074B30>

>  <Group>  (20) 
G2

$$$$

     RDKit          2D

 25 28  0  0  0  0  0  0  0  0999 V2000
   -8.0263    2.4104    0.0000 N   0  0  0  0  0  0  0  0  0  0  0  0
   -7.8175    0.9250    0.0000 C   0  0  0  0  0  0  0  0  0  0  0  0
   -6.4268    0.3631    0.0000 C   0  0  0  0  0  0  0  0  0  0  0  0
   -7.2216   -0.9090    0.0000 C   0  0  0  0  0  0  0  0  0  0  0  0
   -8.7207   -0.8566    0.0000 C   0  0  0  0  0  0  0  0  0  0  0  0
   -9.4249    0.4678    0.0000 C   0  0  0  0  0  0  0  0  0  0  0  0
  -10.9240    0.5202    0.0000 C   0  0  0  0  0  0  0  0  0  0  0  0
  -11.7189   -0.7519    0.0000 C   0  0  0  0  0  0  0  0  0  0  0  0
  -13.2180   -0.6996    0.0000 Cl  0  0  0  0  0  0  0  0  0  0  0  0
  -11.0147   -2.0763    0.0000 C   0  0  0  0  0  0  0  0  0  0  0  0
   -9.5156   -2.1287    0.0000 C   0  0  0  0  0  0  0  0  0  0  0  0
   -5.3120   -0.6406    0.0000 C   0  0  0  0  0  0  0  0  0  0  0  0
   -3.8855   -0.1771    0.0000 C   0  0  0  0  0  0  0  0  0  0  0  0
   -3.5736    1.2902    0.0000 N   0  0  0  0  0  0  0  0  0  0  0  0
   -2.1470    1.7537    0.0000 C   0  0  0  0  0  0  0  0  0  0  0  0
   -1.8351    3.2209    0.0000 N   0  0  0  0  0  0  0  0  0  0  0  0
   -0.4086    3.6844    0.0000 C   0  0  0  0  0  0  0  0  0  0  0  0
    0.7062    2.6807    0.0000 N   0  0  0  0  0  0  0  0  0  0  0  0
    0.3943    1.2135    0.0000 C   0  0  0  0  0  0  0  0  0  0  0  0
    1.2760    0.0000    0.0000 N   0  0  0  0  0  0  0  0  0  0  0  0
    0.3943   -1.2135    0.0000 C   0  0  0  0  0  0  0  0  0  0  0  0
   -1.0323   -0.7500    0.0000 C   0  0  0  0  0  0  0  0  0  0  0  0
   -1.0323    0.7500    0.0000 C   0  0  0  0  0  0  0  0  0  0  0  0
   -4.6883    2.2939    0.0000 C   0  0  0  0  0  0  0  0  0  0  0  0
   -6.1149    1.8303    0.0000 C   0  0  0  0  0  0  0  0  0  0  0  0
  1  2  1  0
  2  3  1  0
  3  4  1  0
  4  5  1  0
  5  6  2  0
  6  7  1  0
  7  8  2  0
  8  9  1  0
  8 10  1  0
 10 11  2  0
  3 12  1  0
 12 13  1  0
 13 14  1  0
 14 15  1  0
 15 16  2  0
 16 17  1  0
 17 18  2  0
 18 19  1  0
 19 20  1  0
 20 21  1  0
 21 22  2  0
 22 23  1  0
 14 24  1  0
 24 25  1  0
 25  3  1  0
 11  5  1  0
 23 15  1  0
 23 19  2  0
M  END
>  <Compound_ID>  (21) 
CHEMBL260000

>  <Active>  (21) 
1

>  <Smiles>  (21) 
NCC1(Cc2ccc(Cl)cc2)CCN(c2ncnc3[nH]ccc23)CC1

>  <canonical_smi>  (21) 
NCC1(Cc2ccc(Cl)cc2)CCN(c2ncnc3[nH]ccc23)CC1

>  <Set>  (21) 
G2 active

>  <Set_type>  (21) 
Train

>  <MW>  (21) 
355.87

>  <HBD>  (21) 
2

>  <HBA>  (21) 
4

>  <NRB>  (21) 
4

>  <NR>  (21) 
4

>  <NAR>  (21) 
3

>  <PSA>  (21) 
70.83

>  <Standard Type>  (21) 
nan

>  <Standard Relation>  (21) 
nan

>  <Standard Units>  (21) 
nan

>  <Standard Value>  (21) 
nan

>  <Assay ChEMBL ID>  (21) 
nan

>  <Assay Description>  (21) 
nan

>  <BAO Label>  (21) 
nan

>  <bits>  (21) 
<rdkit.DataStructs.cDataStructs.ExplicitBitVect object at 0x000001A323074C80>

>  <Group>  (21) 
G2

$$$$

     RDKit          2D

 28 31  0  0  0  0  0  0  0  0999 V2000
    2.7395   -6.6734    0.0000 N   0  0  0  0  0  0  0  0  0  0  0  0
    3.0000   -5.1962    0.0000 C   0  0  0  0  0  0  0  0  0  0  0  0
    4.4095   -5.7092    0.0000 C   0  0  0  0  0  0  0  0  0  0  0  0
    5.5586   -4.7450    0.0000 O   0  0  0  0  0  0  0  0  0  0  0  0
    4.6700   -7.1864    0.0000 N   0  0  0  0  0  0  0  0  0  0  0  0
    6.0796   -7.6994    0.0000 C   0  0  0  0  0  0  0  0  0  0  0  0
    6.3400   -9.1766    0.0000 C   0  0  0  0  0  0  0  0  0  0  0  0
    5.1910  -10.1408    0.0000 C   0  0  0  0  0  0  0  0  0  0  0  0
    5.4514  -11.6180    0.0000 C   0  0  0  0  0  0  0  0  0  0  0  0
    6.8610  -12.1311    0.0000 C   0  0  0  0  0  0  0  0  0  0  0  0
    7.1214  -13.6083    0.0000 Cl  0  0  0  0  0  0  0  0  0  0  0  0
    8.0100  -11.1669    0.0000 C   0  0  0  0  0  0  0  0  0  0  0  0
    7.7496   -9.6897    0.0000 C   0  0  0  0  0  0  0  0  0  0  0  0
    3.7500   -3.8971    0.0000 C   0  0  0  0  0  0  0  0  0  0  0  0
    3.0000   -2.5981    0.0000 C   0  0  0  0  0  0  0  0  0  0  0  0
    1.5000   -2.5981    0.0000 N   0  0  0  0  0  0  0  0  0  0  0  0
    0.7500   -1.2990    0.0000 C   0  0  0  0  0  0  0  0  0  0  0  0
    1.5000    0.0000    0.0000 N   0  0  0  0  0  0  0  0  0  0  0  0
    0.7500    1.2990    0.0000 C   0  0  0  0  0  0  0  0  0  0  0  0
   -0.7500    1.2990    0.0000 N   0  0  0  0  0  0  0  0  0  0  0  0
   -1.5000    0.0000    0.0000 C   0  0  0  0  0  0  0  0  0  0  0  0
   -2.9672   -0.3119    0.0000 N   0  0  0  0  0  0  0  0  0  0  0  0
   -3.1240   -1.8037    0.0000 C   0  0  0  0  0  0  0  0  0  0  0  0
   -4.4231   -2.5537    0.0000 O   0  0  0  0  0  0  0  0  0  0  0  0
   -1.7537   -2.4138    0.0000 N   0  0  0  0  0  0  0  0  0  0  0  0
   -0.7500   -1.2990    0.0000 C   0  0  0  0  0  0  0  0  0  0  0  0
    0.7500   -3.8971    0.0000 C   0  0  0  0  0  0  0  0  0  0  0  0
    1.5000   -5.1962    0.0000 C   0  0  0  0  0  0  0  0  0  0  0  0
  1  2  1  0
  2  3  1  0
  3  4  2  0
  3  5  1  0
  5  6  1  0
  6  7  1  0
  7  8  2  0
  8  9  1  0
  9 10  2  0
 10 11  1  0
 10 12  1  0
 12 13  2  0
  2 14  1  0
 14 15  1  0
 15 16  1  0
 16 17  1  0
 17 18  2  0
 18 19  1  0
 19 20  2  0
 20 21  1  0
 21 22  1  0
 22 23  1  0
 23 24  2  0
 23 25  1  0
 25 26  1  0
 16 27  1  0
 27 28  1  0
 28  2  1  0
 13  7  1  0
 26 17  1  0
 26 21  2  0
M  END
>  <Compound_ID>  (22) 
CHEMBL598842

>  <Active>  (22) 
1

>  <Smiles>  (22) 
NC1(C(=O)NCc2ccc(Cl)cc2)CCN(c2ncnc3[nH]c(=O)[nH]c23)CC1

>  <canonical_smi>  (22) 
NC1(C(=O)NCc2ccc(Cl)cc2)CCN(c2ncnc3[nH]c(=O)[nH]c23)CC1

>  <Set>  (22) 
G2 active

>  <Set_type>  (22) 
Train

>  <MW>  (22) 
401.86

>  <HBD>  (22) 
4

>  <HBA>  (22) 
6

>  <NRB>  (22) 
4

>  <NR>  (22) 
4

>  <NAR>  (22) 
3

>  <PSA>  (22) 
132.79

>  <Standard Type>  (22) 
nan

>  <Standard Relation>  (22) 
nan

>  <Standard Units>  (22) 
nan

>  <Standard Value>  (22) 
nan

>  <Assay ChEMBL ID>  (22) 
nan

>  <Assay Description>  (22) 
nan

>  <BAO Label>  (22) 
nan

>  <bits>  (22) 
<rdkit.DataStructs.cDataStructs.ExplicitBitVect object at 0x000001A323074E40>

>  <Group>  (22) 
G2

$$$$

     RDKit          2D

 27 29  0  0  0  0  0  0  0  0999 V2000
   -3.7548   -2.1855    0.0000 C   0  0  0  0  0  0  0  0  0  0  0  0
   -2.6401   -3.1891    0.0000 C   0  0  0  0  0  0  0  0  0  0  0  0
   -1.2135   -2.7256    0.0000 C   0  0  0  0  0  0  0  0  0  0  0  0
   -0.0000   -3.6073    0.0000 C   0  0  0  0  0  0  0  0  0  0  0  0
    0.0000   -5.1073    0.0000 O   0  0  0  0  0  0  0  0  0  0  0  0
    1.2135   -2.7256    0.0000 N   0  0  0  0  0  0  0  0  0  0  0  0
    0.7500   -1.2990    0.0000 C   0  0  0  0  0  0  0  0  0  0  0  0
    1.5000    0.0000    0.0000 C   0  0  0  0  0  0  0  0  0  0  0  0
    0.7500    1.2990    0.0000 C   0  0  0  0  0  0  0  0  0  0  0  0
   -0.7500    1.2990    0.0000 C   0  0  0  0  0  0  0  0  0  0  0  0
   -1.5000    2.5981    0.0000 N   0  0  0  0  0  0  0  0  0  0  0  0
   -0.7500    3.8971    0.0000 C   0  0  0  0  0  0  0  0  0  0  0  0
   -1.5000    5.1962    0.0000 N   0  0  0  0  0  0  0  0  0  0  0  0
    0.7500    3.8971    0.0000 O   0  0  0  0  0  0  0  0  0  0  0  0
   -1.5000    0.0000    0.0000 C   0  0  0  0  0  0  0  0  0  0  0  0
   -0.7500   -1.2990    0.0000 C   0  0  0  0  0  0  0  0  0  0  0  0
   -2.9520   -4.6564    0.0000 C   0  0  0  0  0  0  0  0  0  0  0  0
   -1.9483   -5.7711    0.0000 C   0  0  0  0  0  0  0  0  0  0  0  0
   -2.6983   -7.0701    0.0000 C   0  0  0  0  0  0  0  0  0  0  0  0
   -2.0882   -8.4404    0.0000 C   0  0  0  0  0  0  0  0  0  0  0  0
   -2.9699   -9.6540    0.0000 N   0  0  0  0  0  0  0  0  0  0  0  0
   -2.3597  -11.0243    0.0000 C   0  0  0  0  0  0  0  0  0  0  0  0
   -0.8680  -11.1811    0.0000 O   0  0  0  0  0  0  0  0  0  0  0  0
   -3.2414  -12.2378    0.0000 C   0  0  0  0  0  0  0  0  0  0  0  0
   -2.6313  -13.6081    0.0000 N   0  0  0  0  0  0  0  0  0  0  0  0
   -4.1655   -6.7583    0.0000 C   0  0  0  0  0  0  0  0  0  0  0  0
   -4.3223   -5.2665    0.0000 N   0  0  0  0  0  0  0  0  0  0  0  0
  1  2  1  0
  2  3  2  0
  3  4  1  0
  4  5  2  0
  4  6  1  0
  6  7  1  0
  7  8  2  0
  8  9  1  0
  9 10  2  0
 10 11  1  0
 11 12  1  0
 12 13  1  0
 12 14  2  0
 10 15  1  0
 15 16  2  0
  2 17  1  0
 17 18  2  0
 18 19  1  0
 19 20  1  0
 20 21  1  0
 21 22  1  0
 22 23  2  0
 22 24  1  0
 24 25  1  0
 19 26  2  0
 26 27  1  0
 16  3  1  0
 27 17  1  0
 16  7  1  0
M  END
>  <Compound_ID>  (23) 
CHEMBL228812

>  <Active>  (23) 
1

>  <Smiles>  (23) 
C/C(=C1/C(=O)Nc2ccc(NC(N)=O)cc21)c1cc(CNC(=O)CN)c[nH]1

>  <canonical_smi>  (23) 
C/C(=C1/C(=O)Nc2ccc(NC(N)=O)cc21)c1cc(CNC(=O)CN)c[nH]1

>  <Set>  (23) 
G2 active

>  <Set_type>  (23) 
Train

>  <MW>  (23) 
368.4

>  <HBD>  (23) 
6

>  <HBA>  (23) 
4

>  <NRB>  (23) 
5

>  <NR>  (23) 
3

>  <NAR>  (23) 
2

>  <PSA>  (23) 
155.13

>  <Standard Type>  (23) 
nan

>  <Standard Relation>  (23) 
nan

>  <Standard Units>  (23) 
nan

>  <Standard Value>  (23) 
nan

>  <Assay ChEMBL ID>  (23) 
nan

>  <Assay Description>  (23) 
nan

>  <BAO Label>  (23) 
nan

>  <bits>  (23) 
<rdkit.DataStructs.cDataStructs.ExplicitBitVect object at 0x000001A323074EB0>

>  <Group>  (23) 
G2

$$$$

     RDKit          2D

 31 34  0  0  0  0  0  0  0  0999 V2000
   -3.7548   -2.1855    0.0000 C   0  0  0  0  0  0  0  0  0  0  0  0
   -2.6401   -3.1891    0.0000 C   0  0  0  0  0  0  0  0  0  0  0  0
   -1.2135   -2.7256    0.0000 C   0  0  0  0  0  0  0  0  0  0  0  0
   -0.0000   -3.6073    0.0000 C   0  0  0  0  0  0  0  0  0  0  0  0
    0.0000   -5.1073    0.0000 O   0  0  0  0  0  0  0  0  0  0  0  0
    1.2135   -2.7256    0.0000 N   0  0  0  0  0  0  0  0  0  0  0  0
    0.7500   -1.2990    0.0000 C   0  0  0  0  0  0  0  0  0  0  0  0
    1.5000    0.0000    0.0000 C   0  0  0  0  0  0  0  0  0  0  0  0
    0.7500    1.2990    0.0000 C   0  0  0  0  0  0  0  0  0  0  0  0
   -0.7500    1.2990    0.0000 C   0  0  0  0  0  0  0  0  0  0  0  0
   -1.5000    2.5981    0.0000 N   0  0  0  0  0  0  0  0  0  0  0  0
   -0.7500    3.8971    0.0000 C   0  0  0  0  0  0  0  0  0  0  0  0
   -1.5000    5.1962    0.0000 N   0  0  0  0  0  0  0  0  0  0  0  0
    0.7500    3.8971    0.0000 O   0  0  0  0  0  0  0  0  0  0  0  0
   -1.5000    0.0000    0.0000 C   0  0  0  0  0  0  0  0  0  0  0  0
   -0.7500   -1.2990    0.0000 C   0  0  0  0  0  0  0  0  0  0  0  0
   -2.9520   -4.6564    0.0000 C   0  0  0  0  0  0  0  0  0  0  0  0
   -1.9483   -5.7711    0.0000 C   0  0  0  0  0  0  0  0  0  0  0  0
   -2.6983   -7.0701    0.0000 C   0  0  0  0  0  0  0  0  0  0  0  0
   -2.0882   -8.4404    0.0000 C   0  0  0  0  0  0  0  0  0  0  0  0
   -2.9699   -9.6540    0.0000 N   0  0  0  0  0  0  0  0  0  0  0  0
   -2.3597  -11.0243    0.0000 C   0  0  0  0  0  0  0  0  0  0  0  0
   -0.8680  -11.1811    0.0000 O   0  0  0  0  0  0  0  0  0  0  0  0
   -3.2414  -12.2378    0.0000 C   0  0  0  0  0  0  0  0  0  0  0  0
   -4.7332  -12.0810    0.0000 C   0  0  0  0  0  0  0  0  0  0  0  0
   -5.6149  -13.2945    0.0000 N   0  0  0  0  0  0  0  0  0  0  0  0
   -5.0048  -14.6649    0.0000 C   0  0  0  0  0  0  0  0  0  0  0  0
   -3.5130  -14.8217    0.0000 C   0  0  0  0  0  0  0  0  0  0  0  0
   -2.6313  -13.6081    0.0000 N   0  0  0  0  0  0  0  0  0  0  0  0
   -4.1655   -6.7583    0.0000 C   0  0  0  0  0  0  0  0  0  0  0  0
   -4.3223   -5.2665    0.0000 N   0  0  0  0  0  0  0  0  0  0  0  0
  1  2  1  0
  2  3  2  0
  3  4  1  0
  4  5  2  0
  4  6  1  0
  6  7  1  0
  7  8  2  0
  8  9  1  0
  9 10  2  0
 10 11  1  0
 11 12  1  0
 12 13  1  0
 12 14  2  0
 10 15  1  0
 15 16  2  0
  2 17  1  0
 17 18  2  0
 18 19  1  0
 19 20  1  0
 20 21  1  0
 21 22  1  0
 22 23  2  0
 22 24  1  0
 24 25  1  0
 25 26  1  0
 26 27  1  0
 27 28  1  0
 28 29  1  0
 19 30  2  0
 30 31  1  0
 16  3  1  0
 31 17  1  0
 16  7  1  0
 29 24  1  0
M  END
>  <Compound_ID>  (24) 
CHEMBL228811

>  <Active>  (24) 
1

>  <Smiles>  (24) 
C/C(=C1/C(=O)Nc2ccc(NC(N)=O)cc21)c1cc(CNC(=O)C2CNCCN2)c[nH]1

>  <canonical_smi>  (24) 
C/C(=C1/C(=O)Nc2ccc(NC(N)=O)cc21)c1cc(CNC(=O)C2CNCCN2)c[nH]1

>  <Set>  (24) 
G2 active

>  <Set_type>  (24) 
Train

>  <MW>  (24) 
423.48

>  <HBD>  (24) 
7

>  <HBA>  (24) 
5

>  <NRB>  (24) 
5

>  <NR>  (24) 
4

>  <NAR>  (24) 
2

>  <PSA>  (24) 
153.17

>  <Standard Type>  (24) 
nan

>  <Standard Relation>  (24) 
nan

>  <Standard Units>  (24) 
nan

>  <Standard Value>  (24) 
nan

>  <Assay ChEMBL ID>  (24) 
nan

>  <Assay Description>  (24) 
nan

>  <BAO Label>  (24) 
nan

>  <bits>  (24) 
<rdkit.DataStructs.cDataStructs.ExplicitBitVect object at 0x000001A3230751C0>

>  <Group>  (24) 
G2

$$$$

     RDKit          2D

 28 31  0  0  0  0  0  0  0  0999 V2000
   -9.0638   -4.9905    0.0000 N   0  0  0  0  0  0  0  0  0  0  0  0
   -8.1821   -3.7770    0.0000 C   0  0  0  0  0  0  0  0  0  0  0  0
   -8.7923   -2.4067    0.0000 C   0  0  0  0  0  0  0  0  0  0  0  0
  -10.2840   -2.2499    0.0000 C   0  0  0  0  0  0  0  0  0  0  0  0
  -11.1657   -3.4634    0.0000 C   0  0  0  0  0  0  0  0  0  0  0  0
  -12.6575   -3.3066    0.0000 C   0  0  0  0  0  0  0  0  0  0  0  0
  -13.5392   -4.5201    0.0000 C   0  0  0  0  0  0  0  0  0  0  0  0
  -12.9291   -5.8905    0.0000 C   0  0  0  0  0  0  0  0  0  0  0  0
  -11.4373   -6.0472    0.0000 C   0  0  0  0  0  0  0  0  0  0  0  0
  -10.5556   -4.8337    0.0000 C   0  0  0  0  0  0  0  0  0  0  0  0
   -7.9106   -1.1931    0.0000 N   0  0  0  0  0  0  0  0  0  0  0  0
   -6.4188   -1.3499    0.0000 C   0  0  0  0  0  0  0  0  0  0  0  0
   -5.8087   -2.7203    0.0000 O   0  0  0  0  0  0  0  0  0  0  0  0
   -5.5371   -0.1364    0.0000 C   0  0  0  0  0  0  0  0  0  0  0  0
   -6.0006    1.2902    0.0000 C   0  0  0  0  0  0  0  0  0  0  0  0
   -4.7871    2.1718    0.0000 C   0  0  0  0  0  0  0  0  0  0  0  0
   -4.7871    3.6718    0.0000 Br  0  0  0  0  0  0  0  0  0  0  0  0
   -3.5736    1.2902    0.0000 C   0  0  0  0  0  0  0  0  0  0  0  0
   -2.1470    1.7537    0.0000 C   0  0  0  0  0  0  0  0  0  0  0  0
   -1.8351    3.2209    0.0000 C   0  0  0  0  0  0  0  0  0  0  0  0
   -0.4086    3.6844    0.0000 C   0  0  0  0  0  0  0  0  0  0  0  0
    0.7062    2.6807    0.0000 N   0  0  0  0  0  0  0  0  0  0  0  0
    0.3943    1.2135    0.0000 C   0  0  0  0  0  0  0  0  0  0  0  0
    1.2760    0.0000    0.0000 N   0  0  0  0  0  0  0  0  0  0  0  0
    0.3943   -1.2135    0.0000 C   0  0  0  0  0  0  0  0  0  0  0  0
   -1.0323   -0.7500    0.0000 C   0  0  0  0  0  0  0  0  0  0  0  0
   -1.0323    0.7500    0.0000 C   0  0  0  0  0  0  0  0  0  0  0  0
   -4.0371   -0.1364    0.0000 S   0  0  0  0  0  0  0  0  0  0  0  0
  1  2  1  0
  3  2  1  6
  3  4  1  0
  4  5  1  0
  5  6  1  0
  6  7  1  0
  7  8  1  0
  8  9  1  0
  9 10  1  0
  3 11  1  0
 11 12  1  0
 12 13  2  0
 12 14  1  0
 14 15  2  0
 15 16  1  0
 16 17  1  0
 16 18  2  0
 18 19  1  0
 19 20  2  0
 20 21  1  0
 21 22  2  0
 22 23  1  0
 23 24  1  0
 24 25  1  0
 25 26  2  0
 26 27  1  0
 18 28  1  0
 10  5  1  0
 28 14  1  0
 27 19  1  0
 27 23  2  0
M  END
>  <Compound_ID>  (25) 
CHEMBL470598

>  <Active>  (25) 
1

>  <Smiles>  (25) 
NC[C@H](CC1CCCCC1)NC(=O)c1cc(Br)c(-c2ccnc3[nH]ccc23)s1

>  <canonical_smi>  (25) 
NC[C@H](CC1CCCCC1)NC(=O)c1cc(Br)c(-c2ccnc3[nH]ccc23)s1

>  <Set>  (25) 
G2 active

>  <Set_type>  (25) 
Train

>  <MW>  (25) 
461.43

>  <HBD>  (25) 
3

>  <HBA>  (25) 
3

>  <NRB>  (25) 
6

>  <NR>  (25) 
4

>  <NAR>  (25) 
3

>  <PSA>  (25) 
83.8

>  <Standard Type>  (25) 
nan

>  <Standard Relation>  (25) 
nan

>  <Standard Units>  (25) 
nan

>  <Standard Value>  (25) 
nan

>  <Assay ChEMBL ID>  (25) 
nan

>  <Assay Description>  (25) 
nan

>  <BAO Label>  (25) 
nan

>  <bits>  (25) 
<rdkit.DataStructs.cDataStructs.ExplicitBitVect object at 0x000001A3230752A0>

>  <Group>  (25) 
G2

$$$$

     RDKit          2D

 38 41  0  0  0  0  0  0  0  0999 V2000
   -3.7548   -2.1855    0.0000 C   0  0  0  0  0  0  0  0  0  0  0  0
   -2.6401   -3.1891    0.0000 C   0  0  0  0  0  0  0  0  0  0  0  0
   -1.2135   -2.7256    0.0000 N   0  0  0  0  0  0  0  0  0  0  0  0
   -0.0000   -3.6073    0.0000 C   0  0  0  0  0  0  0  0  0  0  0  0
   -0.0000   -5.1073    0.0000 C   0  0  0  0  0  0  0  0  0  0  0  0
    1.2135   -5.9890    0.0000 N   0  0  0  0  0  0  0  0  0  0  0  0
    0.7500   -7.4156    0.0000 O   0  0  0  0  0  0  0  0  0  0  0  0
   -0.7500   -7.4156    0.0000 N   0  0  0  0  0  0  0  0  0  0  0  0
   -1.2135   -5.9890    0.0000 C   0  0  0  0  0  0  0  0  0  0  0  0
   -2.6401   -5.5255    0.0000 N   0  0  0  0  0  0  0  0  0  0  0  0
    1.2135   -2.7256    0.0000 N   0  0  0  0  0  0  0  0  0  0  0  0
    0.7500   -1.2990    0.0000 C   0  0  0  0  0  0  0  0  0  0  0  0
    1.5000    0.0000    0.0000 C   0  0  0  0  0  0  0  0  0  0  0  0
    3.0000    0.0000    0.0000 C   0  0  0  0  0  0  0  0  0  0  0  0
    4.5000    0.0000    0.0000 C   0  0  0  0  0  0  0  0  0  0  0  0
    6.0000    0.0000    0.0000 C   0  0  0  0  0  0  0  0  0  0  0  0
    6.0000   -1.5000    0.0000 C   0  0  0  0  0  0  0  0  0  0  0  0
    6.0000    1.5000    0.0000 C   0  0  0  0  0  0  0  0  0  0  0  0
    7.5000    0.0000    0.0000 O   0  0  0  0  0  0  0  0  0  0  0  0
    0.7500    1.2990    0.0000 N   0  0  0  0  0  0  0  0  0  0  0  0
   -0.7500    1.2990    0.0000 C   0  0  0  0  0  0  0  0  0  0  0  0
   -1.5000    0.0000    0.0000 C   0  0  0  0  0  0  0  0  0  0  0  0
   -3.0000    0.0000    0.0000 O   0  0  0  0  0  0  0  0  0  0  0  0
   -3.7500    1.2990    0.0000 C   0  0  0  0  0  0  0  0  0  0  0  0
   -5.2500    1.2990    0.0000 C   0  0  0  0  0  0  0  0  0  0  0  0
   -6.0000    2.5981    0.0000 C   0  0  0  0  0  0  0  0  0  0  0  0
   -7.5000    2.5981    0.0000 N   0  0  0  0  0  0  0  0  0  0  0  0
   -8.2500    3.8971    0.0000 C   0  0  0  0  0  0  0  0  0  0  0  0
   -9.7500    3.8971    0.0000 C   0  0  0  0  0  0  0  0  0  0  0  0
  -10.5000    5.1962    0.0000 C   0  0  0  0  0  0  0  0  0  0  0  0
   -9.7500    6.4952    0.0000 C   0  0  0  0  0  0  0  0  0  0  0  0
  -10.5000    7.7942    0.0000 C   0  0  0  0  0  0  0  0  0  0  0  0
  -12.0000    7.7942    0.0000 C   0  0  0  0  0  0  0  0  0  0  0  0
  -12.7500    9.0933    0.0000 O   0  0  0  0  0  0  0  0  0  0  0  0
  -12.0000   10.3923    0.0000 C   0  0  0  0  0  0  0  0  0  0  0  0
  -12.7500    6.4952    0.0000 C   0  0  0  0  0  0  0  0  0  0  0  0
  -12.0000    5.1962    0.0000 C   0  0  0  0  0  0  0  0  0  0  0  0
   -0.7500   -1.2990    0.0000 C   0  0  0  0  0  0  0  0  0  0  0  0
  1  2  1  0
  2  3  1  0
  3  4  1  0
  4  5  1  0
  5  6  2  0
  6  7  1  0
  7  8  1  0
  8  9  2  0
  9 10  1  0
  4 11  2  0
 11 12  1  0
 12 13  2  0
 13 14  1  0
 14 15  3  0
 15 16  1  0
 16 17  1  0
 16 18  1  0
 16 19  1  0
 13 20  1  0
 20 21  2  0
 21 22  1  0
 22 23  1  0
 23 24  1  0
 24 25  1  0
 25 26  1  0
 26 27  1  0
 27 28  1  0
 28 29  1  0
 29 30  1  0
 30 31  2  0
 31 32  1  0
 32 33  2  0
 33 34  1  0
 34 35  1  0
 33 36  1  0
 36 37  2  0
 22 38  2  0
 38  3  1  0
  9  5  1  0
 38 12  1  0
 37 30  1  0
M  END
>  <Compound_ID>  (26) 
CHEMBL494060

>  <Active>  (26) 
1

>  <Smiles>  (26) 
CCn1c(-c2nonc2N)nc2c(C#CC(C)(C)O)ncc(OCCCNCCc3ccc(OC)cc3)c21

>  <canonical_smi>  (26) 
CCn1c(-c2nonc2N)nc2c(C#CC(C)(C)O)ncc(OCCCNCCc3ccc(OC)cc3)c21

>  <Set>  (26) 
G2 active

>  <Set_type>  (26) 
Train

>  <MW>  (26) 
519.61

>  <HBD>  (26) 
3

>  <HBA>  (26) 
10

>  <NRB>  (26) 
11

>  <NR>  (26) 
4

>  <NAR>  (26) 
4

>  <PSA>  (26) 
146.37

>  <Standard Type>  (26) 
nan

>  <Standard Relation>  (26) 
nan

>  <Standard Units>  (26) 
nan

>  <Standard Value>  (26) 
nan

>  <Assay ChEMBL ID>  (26) 
nan

>  <Assay Description>  (26) 
nan

>  <BAO Label>  (26) 
nan

>  <bits>  (26) 
<rdkit.DataStructs.cDataStructs.ExplicitBitVect object at 0x000001A323075380>

>  <Group>  (26) 
G2

$$$$

     RDKit          2D

 44 51  0  0  0  0  0  0  0  0999 V2000
    2.7760    0.0000    0.0000 O   0  0  0  0  0  0  0  0  0  0  0  0
    1.2760    0.0000    0.0000 C   0  0  0  0  0  0  0  0  0  0  0  0
    0.3943    1.2135    0.0000 N   0  0  0  0  0  0  0  0  0  0  0  0
   -1.0323    0.7500    0.0000 N   0  0  0  0  0  0  0  0  0  0  0  0
   -1.0323   -0.7500    0.0000 C   0  0  0  0  0  0  0  0  0  0  0  0
   -2.1470   -1.7537    0.0000 C   0  0  0  0  0  0  0  0  0  0  0  0
   -3.5736   -1.2902    0.0000 C   0  0  0  0  0  0  0  0  0  0  0  0
   -4.6883   -2.2939    0.0000 C   0  0  0  0  0  0  0  0  0  0  0  0
   -6.1149   -1.8303    0.0000 C   0  0  0  0  0  0  0  0  0  0  0  0
   -6.4268   -0.3631    0.0000 C   0  0  0  0  0  0  0  0  0  0  0  0
   -7.8533    0.1004    0.0000 C   0  0  0  0  0  0  0  0  0  0  0  0
   -8.9681   -0.9033    0.0000 C   0  0  0  0  0  0  0  0  0  0  0  0
   -8.6562   -2.3705    0.0000 C   0  0  0  0  0  0  0  0  0  0  0  0
   -7.2296   -2.8340    0.0000 C   0  0  0  0  0  0  0  0  0  0  0  0
   -4.3764   -3.7611    0.0000 C   0  0  0  0  0  0  0  0  0  0  0  0
   -5.4912   -4.7648    0.0000 C   0  0  0  0  0  0  0  0  0  0  0  0
   -6.9177   -4.3013    0.0000 C   0  0  0  0  0  0  0  0  0  0  0  0
   -8.0325   -5.3050    0.0000 C   0  0  0  0  0  0  0  0  0  0  0  0
   -7.7206   -6.7722    0.0000 C   0  0  0  0  0  0  0  0  0  0  0  0
   -8.8353   -7.7759    0.0000 C   0  0  0  0  0  0  0  0  0  0  0  0
  -10.2619   -7.3123    0.0000 N   0  0  0  0  0  0  0  0  0  0  0  0
  -10.5738   -5.8451    0.0000 C   0  0  0  0  0  0  0  0  0  0  0  0
  -12.0003   -5.3816    0.0000 C   0  0  0  0  0  0  0  0  0  0  0  0
  -13.1151   -6.3853    0.0000 C   0  0  0  0  0  0  0  0  0  0  0  0
  -14.5416   -5.9218    0.0000 C   0  0  0  0  0  0  0  0  0  0  0  0
  -15.7552   -6.8034    0.0000 N   0  0  0  0  0  0  0  0  0  0  0  0
  -16.9687   -5.9218    0.0000 N   0  0  0  0  0  0  0  0  0  0  0  0
  -16.5052   -4.4952    0.0000 C   0  0  0  0  0  0  0  0  0  0  0  0
  -17.3868   -3.2817    0.0000 C   0  0  0  0  0  0  0  0  0  0  0  0
  -16.7767   -1.9113    0.0000 C   0  0  0  0  0  0  0  0  0  0  0  0
  -17.6584   -0.6978    0.0000 C   0  0  0  0  0  0  0  0  0  0  0  0
  -19.1502   -0.8546    0.0000 C   0  0  0  0  0  0  0  0  0  0  0  0
  -19.7603   -2.2249    0.0000 C   0  0  0  0  0  0  0  0  0  0  0  0
  -18.8786   -3.4385    0.0000 N   0  0  0  0  0  0  0  0  0  0  0  0
  -15.0052   -4.4952    0.0000 N   0  0  0  0  0  0  0  0  0  0  0  0
  -12.8032   -7.8525    0.0000 C   0  0  0  0  0  0  0  0  0  0  0  0
  -11.3766   -8.3160    0.0000 C   0  0  0  0  0  0  0  0  0  0  0  0
   -6.2940   -7.2357    0.0000 C   0  0  0  0  0  0  0  0  0  0  0  0
   -5.1793   -6.2320    0.0000 C   0  0  0  0  0  0  0  0  0  0  0  0
   -2.9499   -4.2246    0.0000 N   0  0  0  0  0  0  0  0  0  0  0  0
   -1.8351   -3.2209    0.0000 C   0  0  0  0  0  0  0  0  0  0  0  0
   -0.4086   -3.6844    0.0000 C   0  0  0  0  0  0  0  0  0  0  0  0
    0.7062   -2.6807    0.0000 C   0  0  0  0  0  0  0  0  0  0  0  0
    0.3943   -1.2135    0.0000 N   0  0  0  0  0  0  0  0  0  0  0  0
  1  2  1  0
  2  3  2  0
  3  4  1  0
  4  5  2  0
  5  6  1  0
  6  7  2  0
  7  8  1  0
  8  9  1  0
  9 10  2  0
 10 11  1  0
 11 12  2  0
 12 13  1  0
 13 14  2  0
  8 15  2  0
 15 16  1  0
 16 17  2  0
 17 18  1  0
 18 19  2  0
 19 20  1  0
 20 21  1  0
 21 22  1  0
 22 23  1  0
 23 24  1  0
 24 25  1  0
 25 26  2  0
 26 27  1  0
 27 28  1  0
 28 29  1  0
 29 30  2  0
 30 31  1  0
 31 32  2  0
 32 33  1  0
 33 34  2  0
 28 35  2  0
 24 36  1  0
 36 37  1  0
 19 38  1  0
 38 39  2  0
 15 40  1  0
 40 41  2  0
 41 42  1  0
 42 43  2  0
 43 44  1  0
 44  2  1  0
 44  5  1  0
 41  6  1  0
 14  9  1  0
 39 16  1  0
 37 21  1  0
 35 25  1  0
 34 29  1  0
M  END
>  <Compound_ID>  (27) 
CHEMBL506077

>  <Active>  (27) 
1

>  <Smiles>  (27) 
Oc1nnc2c3cc(-c4ccccc4)c(-c4ccc(CN5CCC(c6n[nH]c(-c7ccccn7)n6)CC5)cc4)nc3ccn12

>  <canonical_smi>  (27) 
Oc1nnc2c3cc(-c4ccccc4)c(-c4ccc(CN5CCC(c6n[nH]c(-c7ccccn7)n6)CC5)cc4)nc3ccn12

>  <Set>  (27) 
G2 active

>  <Set_type>  (27) 
Train

>  <MW>  (27) 
579.67

>  <HBD>  (27) 
2

>  <HBA>  (27) 
8

>  <NRB>  (27) 
6

>  <NR>  (27) 
8

>  <NAR>  (27) 
7

>  <PSA>  (27) 
121.01

>  <Standard Type>  (27) 
nan

>  <Standard Relation>  (27) 
nan

>  <Standard Units>  (27) 
nan

>  <Standard Value>  (27) 
nan

>  <Assay ChEMBL ID>  (27) 
nan

>  <Assay Description>  (27) 
nan

>  <BAO Label>  (27) 
nan

>  <bits>  (27) 
<rdkit.DataStructs.cDataStructs.ExplicitBitVect object at 0x000001A32306FF40>

>  <Group>  (27) 
G2

$$$$

     RDKit          2D

 23 26  0  0  0  0  0  0  0  0999 V2000
   -7.8175    0.9250    0.0000 N   0  0  0  0  0  0  0  0  0  0  0  0
   -6.4268    0.3631    0.0000 C   0  0  0  0  0  0  0  0  0  0  0  0
   -7.2216   -0.9090    0.0000 C   0  0  0  0  0  0  0  0  0  0  0  0
   -8.7207   -0.8566    0.0000 C   0  0  0  0  0  0  0  0  0  0  0  0
   -9.5156   -2.1287    0.0000 C   0  0  0  0  0  0  0  0  0  0  0  0
   -8.8114   -3.4531    0.0000 C   0  0  0  0  0  0  0  0  0  0  0  0
   -9.6063   -4.7252    0.0000 Cl  0  0  0  0  0  0  0  0  0  0  0  0
   -7.3123   -3.5054    0.0000 C   0  0  0  0  0  0  0  0  0  0  0  0
   -6.5174   -2.2334    0.0000 C   0  0  0  0  0  0  0  0  0  0  0  0
   -5.3120   -0.6406    0.0000 C   0  0  0  0  0  0  0  0  0  0  0  0
   -3.8855   -0.1771    0.0000 C   0  0  0  0  0  0  0  0  0  0  0  0
   -3.5736    1.2902    0.0000 N   0  0  0  0  0  0  0  0  0  0  0  0
   -2.1470    1.7537    0.0000 C   0  0  0  0  0  0  0  0  0  0  0  0
   -1.8351    3.2209    0.0000 N   0  0  0  0  0  0  0  0  0  0  0  0
   -0.4086    3.6844    0.0000 C   0  0  0  0  0  0  0  0  0  0  0  0
    0.7062    2.6807    0.0000 N   0  0  0  0  0  0  0  0  0  0  0  0
    0.3943    1.2135    0.0000 C   0  0  0  0  0  0  0  0  0  0  0  0
    1.2760    0.0000    0.0000 N   0  0  0  0  0  0  0  0  0  0  0  0
    0.3943   -1.2135    0.0000 C   0  0  0  0  0  0  0  0  0  0  0  0
   -1.0323   -0.7500    0.0000 C   0  0  0  0  0  0  0  0  0  0  0  0
   -1.0323    0.7500    0.0000 C   0  0  0  0  0  0  0  0  0  0  0  0
   -4.6883    2.2939    0.0000 C   0  0  0  0  0  0  0  0  0  0  0  0
   -6.1149    1.8303    0.0000 C   0  0  0  0  0  0  0  0  0  0  0  0
  1  2  1  0
  2  3  1  0
  3  4  2  0
  4  5  1  0
  5  6  2  0
  6  7  1  0
  6  8  1  0
  8  9  2  0
  2 10  1  0
 10 11  1  0
 11 12  1  0
 12 13  1  0
 13 14  2  0
 14 15  1  0
 15 16  2  0
 16 17  1  0
 17 18  1  0
 18 19  1  0
 19 20  2  0
 20 21  1  0
 12 22  1  0
 22 23  1  0
 23  2  1  0
  9  3  1  0
 21 13  1  0
 21 17  2  0
M  END
>  <Compound_ID>  (28) 
CHEMBL259998

>  <Active>  (28) 
1

>  <Smiles>  (28) 
NC1(c2ccc(Cl)cc2)CCN(c2ncnc3[nH]ccc23)CC1

>  <canonical_smi>  (28) 
NC1(c2ccc(Cl)cc2)CCN(c2ncnc3[nH]ccc23)CC1

>  <Set>  (28) 
G2 active

>  <Set_type>  (28) 
Train

>  <MW>  (28) 
327.82

>  <HBD>  (28) 
2

>  <HBA>  (28) 
4

>  <NRB>  (28) 
2

>  <NR>  (28) 
4

>  <NAR>  (28) 
3

>  <PSA>  (28) 
70.83

>  <Standard Type>  (28) 
nan

>  <Standard Relation>  (28) 
nan

>  <Standard Units>  (28) 
nan

>  <Standard Value>  (28) 
nan

>  <Assay ChEMBL ID>  (28) 
nan

>  <Assay Description>  (28) 
nan

>  <BAO Label>  (28) 
nan

>  <bits>  (28) 
<rdkit.DataStructs.cDataStructs.ExplicitBitVect object at 0x000001A32306F3E0>

>  <Group>  (28) 
G2

$$$$

     RDKit          2D

 26 29  0  0  0  0  0  0  0  0999 V2000
   -7.8175    0.9250    0.0000 N   0  0  0  0  0  0  0  0  0  0  0  0
   -6.4268    0.3631    0.0000 C   0  0  0  0  0  0  0  0  0  0  0  0
   -7.2216   -0.9090    0.0000 C   0  0  0  0  0  0  0  0  0  0  0  0
   -8.7207   -0.8566    0.0000 O   0  0  0  0  0  0  0  0  0  0  0  0
   -9.5156   -2.1287    0.0000 C   0  0  0  0  0  0  0  0  0  0  0  0
  -11.0147   -2.0763    0.0000 C   0  0  0  0  0  0  0  0  0  0  0  0
  -11.7189   -0.7519    0.0000 C   0  0  0  0  0  0  0  0  0  0  0  0
  -13.2180   -0.6996    0.0000 C   0  0  0  0  0  0  0  0  0  0  0  0
  -14.0129   -1.9716    0.0000 C   0  0  0  0  0  0  0  0  0  0  0  0
  -15.5119   -1.9193    0.0000 Cl  0  0  0  0  0  0  0  0  0  0  0  0
  -13.3087   -3.2960    0.0000 C   0  0  0  0  0  0  0  0  0  0  0  0
  -11.8096   -3.3484    0.0000 C   0  0  0  0  0  0  0  0  0  0  0  0
   -5.3120   -0.6406    0.0000 C   0  0  0  0  0  0  0  0  0  0  0  0
   -3.8855   -0.1771    0.0000 C   0  0  0  0  0  0  0  0  0  0  0  0
   -3.5736    1.2902    0.0000 N   0  0  0  0  0  0  0  0  0  0  0  0
   -2.1470    1.7537    0.0000 C   0  0  0  0  0  0  0  0  0  0  0  0
   -1.8351    3.2209    0.0000 N   0  0  0  0  0  0  0  0  0  0  0  0
   -0.4086    3.6844    0.0000 C   0  0  0  0  0  0  0  0  0  0  0  0
    0.7062    2.6807    0.0000 N   0  0  0  0  0  0  0  0  0  0  0  0
    0.3943    1.2135    0.0000 C   0  0  0  0  0  0  0  0  0  0  0  0
    1.2760    0.0000    0.0000 N   0  0  0  0  0  0  0  0  0  0  0  0
    0.3943   -1.2135    0.0000 C   0  0  0  0  0  0  0  0  0  0  0  0
   -1.0323   -0.7500    0.0000 C   0  0  0  0  0  0  0  0  0  0  0  0
   -1.0323    0.7500    0.0000 C   0  0  0  0  0  0  0  0  0  0  0  0
   -4.6883    2.2939    0.0000 C   0  0  0  0  0  0  0  0  0  0  0  0
   -6.1149    1.8303    0.0000 C   0  0  0  0  0  0  0  0  0  0  0  0
  1  2  1  0
  2  3  1  0
  3  4  1  0
  4  5  1  0
  5  6  1  0
  6  7  2  0
  7  8  1  0
  8  9  2  0
  9 10  1  0
  9 11  1  0
 11 12  2  0
  2 13  1  0
 13 14  1  0
 14 15  1  0
 15 16  1  0
 16 17  2  0
 17 18  1  0
 18 19  2  0
 19 20  1  0
 20 21  1  0
 21 22  1  0
 22 23  2  0
 23 24  1  0
 15 25  1  0
 25 26  1  0
 26  2  1  0
 12  6  1  0
 24 16  1  0
 24 20  2  0
M  END
>  <Compound_ID>  (29) 
CHEMBL597793

>  <Active>  (29) 
1

>  <Smiles>  (29) 
NC1(COCc2ccc(Cl)cc2)CCN(c2ncnc3[nH]ccc23)CC1

>  <canonical_smi>  (29) 
NC1(COCc2ccc(Cl)cc2)CCN(c2ncnc3[nH]ccc23)CC1

>  <Set>  (29) 
G2 active

>  <Set_type>  (29) 
Train

>  <MW>  (29) 
371.87

>  <HBD>  (29) 
2

>  <HBA>  (29) 
5

>  <NRB>  (29) 
5

>  <NR>  (29) 
4

>  <NAR>  (29) 
3

>  <PSA>  (29) 
80.06

>  <Standard Type>  (29) 
nan

>  <Standard Relation>  (29) 
nan

>  <Standard Units>  (29) 
nan

>  <Standard Value>  (29) 
nan

>  <Assay ChEMBL ID>  (29) 
nan

>  <Assay Description>  (29) 
nan

>  <BAO Label>  (29) 
nan

>  <bits>  (29) 
<rdkit.DataStructs.cDataStructs.ExplicitBitVect object at 0x000001A32306F5A0>

>  <Group>  (29) 
G2

$$$$

     RDKit          2D

 35 40  0  0  0  0  0  0  0  0999 V2000
   -2.6401   -3.1891    0.0000 C   0  0  0  0  0  0  0  0  0  0  0  0
   -1.2135   -2.7256    0.0000 C   0  0  0  0  0  0  0  0  0  0  0  0
   -0.0000   -3.6073    0.0000 N   0  0  0  0  0  0  0  0  0  0  0  0
    1.2135   -2.7256    0.0000 N   0  0  0  0  0  0  0  0  0  0  0  0
    0.7500   -1.2990    0.0000 C   0  0  0  0  0  0  0  0  0  0  0  0
    1.5000    0.0000    0.0000 C   0  0  0  0  0  0  0  0  0  0  0  0
    0.7500    1.2990    0.0000 C   0  0  0  0  0  0  0  0  0  0  0  0
   -0.7500    1.2990    0.0000 C   0  0  0  0  0  0  0  0  0  0  0  0
   -1.5000    2.5981    0.0000 C   0  0  0  0  0  0  0  0  0  0  0  0
   -0.7500    3.8971    0.0000 C   0  0  0  0  0  0  0  0  0  0  0  0
   -1.5000    5.1962    0.0000 C   0  0  0  0  0  0  0  0  0  0  0  0
   -0.7500    6.4952    0.0000 O   0  0  0  0  0  0  0  0  0  0  0  0
    0.7500    6.4952    0.0000 C   0  0  0  0  0  0  0  0  0  0  0  0
    1.5000    7.7942    0.0000 C   0  0  0  0  0  0  0  0  0  0  0  0
    0.7500    9.0933    0.0000 N   0  0  0  0  0  0  0  0  0  0  0  0
    3.0000    7.7942    0.0000 C   0  0  0  0  0  0  0  0  0  0  0  0
    3.7500    9.0933    0.0000 C   0  0  0  0  0  0  0  0  0  0  0  0
    3.1399   10.4636    0.0000 C   0  0  0  0  0  0  0  0  0  0  0  0
    4.2546   11.4673    0.0000 N   0  0  0  0  0  0  0  0  0  0  0  0
    5.5537   10.7173    0.0000 C   0  0  0  0  0  0  0  0  0  0  0  0
    6.9802   11.1808    0.0000 C   0  0  0  0  0  0  0  0  0  0  0  0
    8.0950   10.1771    0.0000 C   0  0  0  0  0  0  0  0  0  0  0  0
    7.7831    8.7099    0.0000 C   0  0  0  0  0  0  0  0  0  0  0  0
    6.3565    8.2464    0.0000 C   0  0  0  0  0  0  0  0  0  0  0  0
    5.2418    9.2501    0.0000 C   0  0  0  0  0  0  0  0  0  0  0  0
   -3.0000    5.1962    0.0000 C   0  0  0  0  0  0  0  0  0  0  0  0
   -3.7500    3.8971    0.0000 N   0  0  0  0  0  0  0  0  0  0  0  0
   -3.0000    2.5981    0.0000 C   0  0  0  0  0  0  0  0  0  0  0  0
   -3.7500    1.2990    0.0000 C   0  0  0  0  0  0  0  0  0  0  0  0
   -3.1399   -0.0713    0.0000 C   0  0  0  0  0  0  0  0  0  0  0  0
   -4.2546   -1.0750    0.0000 C   0  0  0  0  0  0  0  0  0  0  0  0
   -5.5537   -0.3250    0.0000 O   0  0  0  0  0  0  0  0  0  0  0  0
   -5.2418    1.1422    0.0000 C   0  0  0  0  0  0  0  0  0  0  0  0
   -1.5000    0.0000    0.0000 C   0  0  0  0  0  0  0  0  0  0  0  0
   -0.7500   -1.2990    0.0000 C   0  0  0  0  0  0  0  0  0  0  0  0
  1  2  1  0
  2  3  2  0
  3  4  1  0
  4  5  1  0
  5  6  2  0
  6  7  1  0
  7  8  2  0
  8  9  1  0
  9 10  2  0
 10 11  1  0
 11 12  1  0
 12 13  1  0
 13 14  1  0
 14 15  1  1
 14 16  1  0
 16 17  1  0
 17 18  2  0
 18 19  1  0
 19 20  1  0
 20 21  2  0
 21 22  1  0
 22 23  2  0
 23 24  1  0
 24 25  2  0
 11 26  2  0
 26 27  1  0
 27 28  2  0
 28 29  1  0
 29 30  1  0
 30 31  2  0
 31 32  1  0
 32 33  1  0
  8 34  1  0
 34 35  2  0
 35  2  1  0
 35  5  1  0
 28  9  1  0
 33 29  2  0
 25 17  1  0
 25 20  1  0
M  END
>  <Compound_ID>  (30) 
CHEMBL593490

>  <Active>  (30) 
1

>  <Smiles>  (30) 
Cc1n[nH]c2ccc(-c3cc(OC[C@@H](N)Cc4c[nH]c5ccccc45)cnc3-c3ccoc3)cc12

>  <canonical_smi>  (30) 
Cc1n[nH]c2ccc(-c3cc(OC[C@@H](N)Cc4c[nH]c5ccccc45)cnc3-c3ccoc3)cc12

>  <Set>  (30) 
G2 active

>  <Set_type>  (30) 
Train

>  <MW>  (30) 
463.54

>  <HBD>  (30) 
3

>  <HBA>  (30) 
5

>  <NRB>  (30) 
7

>  <NR>  (30) 
6

>  <NAR>  (30) 
6

>  <PSA>  (30) 
105.75

>  <Standard Type>  (30) 
nan

>  <Standard Relation>  (30) 
nan

>  <Standard Units>  (30) 
nan

>  <Standard Value>  (30) 
nan

>  <Assay ChEMBL ID>  (30) 
nan

>  <Assay Description>  (30) 
nan

>  <BAO Label>  (30) 
nan

>  <bits>  (30) 
<rdkit.DataStructs.cDataStructs.ExplicitBitVect object at 0x000001A32306F6F0>

>  <Group>  (30) 
G2

$$$$

     RDKit          2D

 27 30  0  0  0  0  0  0  0  0999 V2000
   -7.8175    0.9250    0.0000 N   0  0  0  0  0  0  0  0  0  0  0  0
   -6.4268    0.3631    0.0000 C   0  0  0  0  0  0  0  0  0  0  0  0
   -7.2216   -0.9090    0.0000 C   0  0  0  0  0  0  0  0  0  0  0  0
   -6.5174   -2.2334    0.0000 O   0  0  0  0  0  0  0  0  0  0  0  0
   -8.7207   -0.8566    0.0000 N   0  0  0  0  0  0  0  0  0  0  0  0
   -9.5156   -2.1287    0.0000 C   0  0  0  0  0  0  0  0  0  0  0  0
  -11.0147   -2.0763    0.0000 C   0  0  0  0  0  0  0  0  0  0  0  0
  -11.7189   -0.7519    0.0000 C   0  0  0  0  0  0  0  0  0  0  0  0
  -13.2180   -0.6996    0.0000 C   0  0  0  0  0  0  0  0  0  0  0  0
  -14.0129   -1.9716    0.0000 C   0  0  0  0  0  0  0  0  0  0  0  0
  -15.5119   -1.9193    0.0000 Cl  0  0  0  0  0  0  0  0  0  0  0  0
  -13.3087   -3.2960    0.0000 C   0  0  0  0  0  0  0  0  0  0  0  0
  -11.8096   -3.3484    0.0000 C   0  0  0  0  0  0  0  0  0  0  0  0
   -5.3120   -0.6406    0.0000 C   0  0  0  0  0  0  0  0  0  0  0  0
   -3.8855   -0.1771    0.0000 C   0  0  0  0  0  0  0  0  0  0  0  0
   -3.5736    1.2902    0.0000 N   0  0  0  0  0  0  0  0  0  0  0  0
   -2.1470    1.7537    0.0000 C   0  0  0  0  0  0  0  0  0  0  0  0
   -1.8351    3.2209    0.0000 C   0  0  0  0  0  0  0  0  0  0  0  0
   -0.4086    3.6844    0.0000 C   0  0  0  0  0  0  0  0  0  0  0  0
    0.7062    2.6807    0.0000 N   0  0  0  0  0  0  0  0  0  0  0  0
    0.3943    1.2135    0.0000 C   0  0  0  0  0  0  0  0  0  0  0  0
    1.2760    0.0000    0.0000 N   0  0  0  0  0  0  0  0  0  0  0  0
    0.3943   -1.2135    0.0000 C   0  0  0  0  0  0  0  0  0  0  0  0
   -1.0323   -0.7500    0.0000 C   0  0  0  0  0  0  0  0  0  0  0  0
   -1.0323    0.7500    0.0000 C   0  0  0  0  0  0  0  0  0  0  0  0
   -4.6883    2.2939    0.0000 C   0  0  0  0  0  0  0  0  0  0  0  0
   -6.1149    1.8303    0.0000 C   0  0  0  0  0  0  0  0  0  0  0  0
  1  2  1  0
  2  3  1  0
  3  4  2  0
  3  5  1  0
  5  6  1  0
  6  7  1  0
  7  8  2  0
  8  9  1  0
  9 10  2  0
 10 11  1  0
 10 12  1  0
 12 13  2  0
  2 14  1  0
 14 15  1  0
 15 16  1  0
 16 17  1  0
 17 18  2  0
 18 19  1  0
 19 20  2  0
 20 21  1  0
 21 22  1  0
 22 23  1  0
 23 24  2  0
 24 25  1  0
 16 26  1  0
 26 27  1  0
 27  2  1  0
 13  7  1  0
 25 17  1  0
 25 21  2  0
M  END
>  <Compound_ID>  (31) 
CHEMBL599448

>  <Active>  (31) 
1

>  <Smiles>  (31) 
NC1(C(=O)NCc2ccc(Cl)cc2)CCN(c2ccnc3[nH]ccc23)CC1

>  <canonical_smi>  (31) 
NC1(C(=O)NCc2ccc(Cl)cc2)CCN(c2ccnc3[nH]ccc23)CC1

>  <Set>  (31) 
G2 active

>  <Set_type>  (31) 
Train

>  <MW>  (31) 
383.88

>  <HBD>  (31) 
3

>  <HBA>  (31) 
4

>  <NRB>  (31) 
4

>  <NR>  (31) 
4

>  <NAR>  (31) 
3

>  <PSA>  (31) 
87.04

>  <Standard Type>  (31) 
nan

>  <Standard Relation>  (31) 
nan

>  <Standard Units>  (31) 
nan

>  <Standard Value>  (31) 
nan

>  <Assay ChEMBL ID>  (31) 
nan

>  <Assay Description>  (31) 
nan

>  <BAO Label>  (31) 
nan

>  <bits>  (31) 
<rdkit.DataStructs.cDataStructs.ExplicitBitVect object at 0x000001A32306FE60>

>  <Group>  (31) 
G2

$$$$

     RDKit          2D

 24 27  0  0  0  0  0  0  0  0999 V2000
   -7.8175    0.9250    0.0000 N   0  0  0  0  0  0  0  0  0  0  0  0
   -6.4268    0.3631    0.0000 C   0  0  0  0  0  0  0  0  0  0  0  0
   -7.2216   -0.9090    0.0000 C   0  0  0  0  0  0  0  0  0  0  0  0
   -8.7207   -0.8566    0.0000 C   0  0  0  0  0  0  0  0  0  0  0  0
   -9.4249    0.4678    0.0000 C   0  0  0  0  0  0  0  0  0  0  0  0
  -10.9240    0.5202    0.0000 C   0  0  0  0  0  0  0  0  0  0  0  0
  -11.7189   -0.7519    0.0000 C   0  0  0  0  0  0  0  0  0  0  0  0
  -13.2180   -0.6996    0.0000 Cl  0  0  0  0  0  0  0  0  0  0  0  0
  -11.0147   -2.0763    0.0000 C   0  0  0  0  0  0  0  0  0  0  0  0
   -9.5156   -2.1287    0.0000 C   0  0  0  0  0  0  0  0  0  0  0  0
   -5.3120   -0.6406    0.0000 C   0  0  0  0  0  0  0  0  0  0  0  0
   -3.8855   -0.1771    0.0000 C   0  0  0  0  0  0  0  0  0  0  0  0
   -3.5736    1.2902    0.0000 N   0  0  0  0  0  0  0  0  0  0  0  0
   -2.1470    1.7537    0.0000 C   0  0  0  0  0  0  0  0  0  0  0  0
   -1.8351    3.2209    0.0000 C   0  0  0  0  0  0  0  0  0  0  0  0
   -0.4086    3.6844    0.0000 C   0  0  0  0  0  0  0  0  0  0  0  0
    0.7062    2.6807    0.0000 N   0  0  0  0  0  0  0  0  0  0  0  0
    0.3943    1.2135    0.0000 C   0  0  0  0  0  0  0  0  0  0  0  0
    1.2760    0.0000    0.0000 N   0  0  0  0  0  0  0  0  0  0  0  0
    0.3943   -1.2135    0.0000 N   0  0  0  0  0  0  0  0  0  0  0  0
   -1.0323   -0.7500    0.0000 C   0  0  0  0  0  0  0  0  0  0  0  0
   -1.0323    0.7500    0.0000 C   0  0  0  0  0  0  0  0  0  0  0  0
   -4.6883    2.2939    0.0000 C   0  0  0  0  0  0  0  0  0  0  0  0
   -6.1149    1.8303    0.0000 C   0  0  0  0  0  0  0  0  0  0  0  0
  1  2  1  0
  2  3  1  0
  3  4  1  0
  4  5  2  0
  5  6  1  0
  6  7  2  0
  7  8  1  0
  7  9  1  0
  9 10  2  0
  2 11  1  0
 11 12  1  0
 12 13  1  0
 13 14  1  0
 14 15  2  0
 15 16  1  0
 16 17  2  0
 17 18  1  0
 18 19  1  0
 19 20  1  0
 20 21  2  0
 21 22  1  0
 13 23  1  0
 23 24  1  0
 24  2  1  0
 10  4  1  0
 22 14  1  0
 22 18  2  0
M  END
>  <Compound_ID>  (32) 
CHEMBL598013

>  <Active>  (32) 
1

>  <Smiles>  (32) 
NC1(Cc2ccc(Cl)cc2)CCN(c2ccnc3[nH]ncc23)CC1

>  <canonical_smi>  (32) 
NC1(Cc2ccc(Cl)cc2)CCN(c2ccnc3[nH]ncc23)CC1

>  <Set>  (32) 
G2 active

>  <Set_type>  (32) 
Train

>  <MW>  (32) 
341.85

>  <HBD>  (32) 
2

>  <HBA>  (32) 
4

>  <NRB>  (32) 
3

>  <NR>  (32) 
4

>  <NAR>  (32) 
3

>  <PSA>  (32) 
70.83

>  <Standard Type>  (32) 
nan

>  <Standard Relation>  (32) 
nan

>  <Standard Units>  (32) 
nan

>  <Standard Value>  (32) 
nan

>  <Assay ChEMBL ID>  (32) 
nan

>  <Assay Description>  (32) 
nan

>  <BAO Label>  (32) 
nan

>  <bits>  (32) 
<rdkit.DataStructs.cDataStructs.ExplicitBitVect object at 0x000001A32306C350>

>  <Group>  (32) 
G2

$$$$

     RDKit          2D

 24 27  0  0  0  0  0  0  0  0999 V2000
   -8.0263    2.4104    0.0000 N   0  0  0  0  0  0  0  0  0  0  0  0
   -7.8175    0.9250    0.0000 C   0  0  0  0  0  0  0  0  0  0  0  0
   -6.4268    0.3631    0.0000 C   0  0  0  0  0  0  0  0  0  0  0  0
   -7.2216   -0.9090    0.0000 C   0  0  0  0  0  0  0  0  0  0  0  0
   -8.7207   -0.8566    0.0000 C   0  0  0  0  0  0  0  0  0  0  0  0
   -9.5156   -2.1287    0.0000 C   0  0  0  0  0  0  0  0  0  0  0  0
   -8.8114   -3.4531    0.0000 C   0  0  0  0  0  0  0  0  0  0  0  0
   -9.6063   -4.7252    0.0000 Cl  0  0  0  0  0  0  0  0  0  0  0  0
   -7.3123   -3.5054    0.0000 C   0  0  0  0  0  0  0  0  0  0  0  0
   -6.5174   -2.2334    0.0000 C   0  0  0  0  0  0  0  0  0  0  0  0
   -5.3120   -0.6406    0.0000 C   0  0  0  0  0  0  0  0  0  0  0  0
   -3.8855   -0.1771    0.0000 C   0  0  0  0  0  0  0  0  0  0  0  0
   -3.5736    1.2902    0.0000 N   0  0  0  0  0  0  0  0  0  0  0  0
   -2.1470    1.7537    0.0000 C   0  0  0  0  0  0  0  0  0  0  0  0
   -1.8351    3.2209    0.0000 C   0  0  0  0  0  0  0  0  0  0  0  0
   -0.4086    3.6844    0.0000 C   0  0  0  0  0  0  0  0  0  0  0  0
    0.7062    2.6807    0.0000 N   0  0  0  0  0  0  0  0  0  0  0  0
    0.3943    1.2135    0.0000 C   0  0  0  0  0  0  0  0  0  0  0  0
    1.2760    0.0000    0.0000 N   0  0  0  0  0  0  0  0  0  0  0  0
    0.3943   -1.2135    0.0000 C   0  0  0  0  0  0  0  0  0  0  0  0
   -1.0323   -0.7500    0.0000 C   0  0  0  0  0  0  0  0  0  0  0  0
   -1.0323    0.7500    0.0000 C   0  0  0  0  0  0  0  0  0  0  0  0
   -4.6883    2.2939    0.0000 C   0  0  0  0  0  0  0  0  0  0  0  0
   -6.1149    1.8303    0.0000 C   0  0  0  0  0  0  0  0  0  0  0  0
  1  2  1  0
  2  3  1  0
  3  4  1  0
  4  5  2  0
  5  6  1  0
  6  7  2  0
  7  8  1  0
  7  9  1  0
  9 10  2  0
  3 11  1  0
 11 12  1  0
 12 13  1  0
 13 14  1  0
 14 15  2  0
 15 16  1  0
 16 17  2  0
 17 18  1  0
 18 19  1  0
 19 20  1  0
 20 21  2  0
 21 22  1  0
 13 23  1  0
 23 24  1  0
 24  3  1  0
 10  4  1  0
 22 14  1  0
 22 18  2  0
M  END
>  <Compound_ID>  (33) 
CHEMBL260463

>  <Active>  (33) 
1

>  <Smiles>  (33) 
NCC1(c2ccc(Cl)cc2)CCN(c2ccnc3[nH]ccc23)CC1

>  <canonical_smi>  (33) 
NCC1(c2ccc(Cl)cc2)CCN(c2ccnc3[nH]ccc23)CC1

>  <Set>  (33) 
G2 active

>  <Set_type>  (33) 
Train

>  <MW>  (33) 
340.86

>  <HBD>  (33) 
2

>  <HBA>  (33) 
3

>  <NRB>  (33) 
3

>  <NR>  (33) 
4

>  <NAR>  (33) 
3

>  <PSA>  (33) 
57.94

>  <Standard Type>  (33) 
nan

>  <Standard Relation>  (33) 
nan

>  <Standard Units>  (33) 
nan

>  <Standard Value>  (33) 
nan

>  <Assay ChEMBL ID>  (33) 
nan

>  <Assay Description>  (33) 
nan

>  <BAO Label>  (33) 
nan

>  <bits>  (33) 
<rdkit.DataStructs.cDataStructs.ExplicitBitVect object at 0x000001A32306E8F0>

>  <Group>  (33) 
G2

$$$$

     RDKit          2D

 42 48  0  0  0  0  0  0  0  0999 V2000
    3.7500   -1.2990    0.0000 C   0  0  0  0  0  0  0  0  0  0  0  0
    3.0000    0.0000    0.0000 S   0  0  0  0  0  0  0  0  0  0  0  0
    1.5000    0.0000    0.0000 C   0  0  0  0  0  0  0  0  0  0  0  0
    0.7500   -1.2990    0.0000 N   0  0  0  0  0  0  0  0  0  0  0  0
   -0.7500   -1.2990    0.0000 C   0  0  0  0  0  0  0  0  0  0  0  0
   -1.5000    0.0000    0.0000 C   0  0  0  0  0  0  0  0  0  0  0  0
   -3.0000    0.0000    0.0000 C   0  0  0  0  0  0  0  0  0  0  0  0
   -3.7500    1.2990    0.0000 C   0  0  0  0  0  0  0  0  0  0  0  0
   -5.2500    1.2990    0.0000 C   0  0  0  0  0  0  0  0  0  0  0  0
   -6.0000    2.5981    0.0000 C   0  0  0  0  0  0  0  0  0  0  0  0
   -7.5000    2.5981    0.0000 C   0  0  0  0  0  0  0  0  0  0  0  0
   -8.2500    1.2990    0.0000 C   0  0  0  0  0  0  0  0  0  0  0  0
   -7.5000    0.0000    0.0000 C   0  0  0  0  0  0  0  0  0  0  0  0
   -6.0000    0.0000    0.0000 C   0  0  0  0  0  0  0  0  0  0  0  0
   -3.0000    2.5981    0.0000 C   0  0  0  0  0  0  0  0  0  0  0  0
   -3.7500    3.8971    0.0000 C   0  0  0  0  0  0  0  0  0  0  0  0
   -3.0000    5.1962    0.0000 C   0  0  0  0  0  0  0  0  0  0  0  0
   -3.7500    6.4952    0.0000 C   0  0  0  0  0  0  0  0  0  0  0  0
   -5.2500    6.4952    0.0000 C   0  0  0  0  0  0  0  0  0  0  0  0
   -6.0000    7.7942    0.0000 C   0  0  0  0  0  0  0  0  0  0  0  0
   -5.2500    9.0933    0.0000 N   0  0  0  0  0  0  0  0  0  0  0  0
   -3.7500    9.0933    0.0000 C   0  0  0  0  0  0  0  0  0  0  0  0
   -3.0000   10.3923    0.0000 C   0  0  0  0  0  0  0  0  0  0  0  0
   -3.7500   11.6913    0.0000 C   0  0  0  0  0  0  0  0  0  0  0  0
   -3.0000   12.9904    0.0000 C   0  0  0  0  0  0  0  0  0  0  0  0
   -3.6101   14.3607    0.0000 N   0  0  0  0  0  0  0  0  0  0  0  0
   -2.4954   15.3644    0.0000 N   0  0  0  0  0  0  0  0  0  0  0  0
   -1.1963   14.6144    0.0000 C   0  0  0  0  0  0  0  0  0  0  0  0
    0.1740   15.2245    0.0000 C   0  0  0  0  0  0  0  0  0  0  0  0
    1.3875   14.3428    0.0000 C   0  0  0  0  0  0  0  0  0  0  0  0
    2.7578   14.9529    0.0000 C   0  0  0  0  0  0  0  0  0  0  0  0
    2.9146   16.4447    0.0000 C   0  0  0  0  0  0  0  0  0  0  0  0
    1.7011   17.3264    0.0000 C   0  0  0  0  0  0  0  0  0  0  0  0
    0.3308   16.7163    0.0000 N   0  0  0  0  0  0  0  0  0  0  0  0
   -1.5082   13.1472    0.0000 N   0  0  0  0  0  0  0  0  0  0  0  0
   -5.2500   11.6913    0.0000 C   0  0  0  0  0  0  0  0  0  0  0  0
   -6.0000   10.3923    0.0000 C   0  0  0  0  0  0  0  0  0  0  0  0
   -6.0000    5.1962    0.0000 C   0  0  0  0  0  0  0  0  0  0  0  0
   -5.2500    3.8971    0.0000 C   0  0  0  0  0  0  0  0  0  0  0  0
   -1.5000    2.5981    0.0000 N   0  0  0  0  0  0  0  0  0  0  0  0
   -0.7500    1.2990    0.0000 C   0  0  0  0  0  0  0  0  0  0  0  0
    0.7500    1.2990    0.0000 N   0  0  0  0  0  0  0  0  0  0  0  0
  1  2  1  0
  2  3  1  0
  3  4  2  0
  4  5  1  0
  5  6  2  0
  6  7  1  0
  7  8  2  0
  8  9  1  0
  9 10  2  0
 10 11  1  0
 11 12  2  0
 12 13  1  0
 13 14  2  0
  8 15  1  0
 15 16  1  0
 16 17  2  0
 17 18  1  0
 18 19  2  0
 19 20  1  0
 20 21  1  0
 21 22  1  0
 22 23  1  0
 23 24  1  0
 24 25  1  0
 25 26  2  0
 26 27  1  0
 27 28  2  0
 28 29  1  0
 29 30  2  0
 30 31  1  0
 31 32  2  0
 32 33  1  0
 33 34  2  0
 28 35  1  0
 24 36  1  0
 36 37  1  0
 19 38  1  0
 38 39  2  0
 15 40  2  0
 40 41  1  0
 41 42  2  0
 42  3  1  0
 41  6  1  0
 14  9  1  0
 39 16  1  0
 37 21  1  0
 35 25  1  0
 34 29  1  0
M  END
>  <Compound_ID>  (34) 
CHEMBL254099

>  <Active>  (34) 
1

>  <Smiles>  (34) 
CSc1ncc2cc(-c3ccccc3)c(-c3ccc(CN4CCC(c5nnc(-c6ccccn6)[nH]5)CC4)cc3)nc2n1

>  <canonical_smi>  (34) 
CSc1ncc2cc(-c3ccccc3)c(-c3ccc(CN4CCC(c5nnc(-c6ccccn6)[nH]5)CC4)cc3)nc2n1

>  <Set>  (34) 
G2 active

>  <Set_type>  (34) 
Train

>  <MW>  (34) 
570.73

>  <HBD>  (34) 
1

>  <HBA>  (34) 
8

>  <NRB>  (34) 
7

>  <NR>  (34) 
7

>  <NAR>  (34) 
6

>  <PSA>  (34) 
96.37

>  <Standard Type>  (34) 
nan

>  <Standard Relation>  (34) 
nan

>  <Standard Units>  (34) 
nan

>  <Standard Value>  (34) 
nan

>  <Assay ChEMBL ID>  (34) 
nan

>  <Assay Description>  (34) 
nan

>  <BAO Label>  (34) 
nan

>  <bits>  (34) 
<rdkit.DataStructs.cDataStructs.ExplicitBitVect object at 0x000001A32306CE40>

>  <Group>  (34) 
G2

$$$$

     RDKit          2D

 28 31  0  0  0  0  0  0  0  0999 V2000
   -9.0638   -4.9905    0.0000 N   0  0  0  0  0  0  0  0  0  0  0  0
   -8.1821   -3.7770    0.0000 C   0  0  0  0  0  0  0  0  0  0  0  0
   -8.7923   -2.4067    0.0000 C   0  0  0  0  0  0  0  0  0  0  0  0
  -10.2840   -2.2499    0.0000 C   0  0  0  0  0  0  0  0  0  0  0  0
  -11.1657   -3.4634    0.0000 C   0  0  0  0  0  0  0  0  0  0  0  0
  -12.6575   -3.3066    0.0000 C   0  0  0  0  0  0  0  0  0  0  0  0
  -13.5392   -4.5201    0.0000 C   0  0  0  0  0  0  0  0  0  0  0  0
  -12.9291   -5.8905    0.0000 N   0  0  0  0  0  0  0  0  0  0  0  0
  -11.4373   -6.0472    0.0000 C   0  0  0  0  0  0  0  0  0  0  0  0
  -10.5556   -4.8337    0.0000 C   0  0  0  0  0  0  0  0  0  0  0  0
   -7.9106   -1.1931    0.0000 N   0  0  0  0  0  0  0  0  0  0  0  0
   -6.4188   -1.3499    0.0000 C   0  0  0  0  0  0  0  0  0  0  0  0
   -5.8087   -2.7203    0.0000 O   0  0  0  0  0  0  0  0  0  0  0  0
   -5.5371   -0.1364    0.0000 C   0  0  0  0  0  0  0  0  0  0  0  0
   -6.0006    1.2902    0.0000 C   0  0  0  0  0  0  0  0  0  0  0  0
   -4.7871    2.1718    0.0000 C   0  0  0  0  0  0  0  0  0  0  0  0
   -4.7871    3.6718    0.0000 Br  0  0  0  0  0  0  0  0  0  0  0  0
   -3.5736    1.2902    0.0000 C   0  0  0  0  0  0  0  0  0  0  0  0
   -2.1470    1.7537    0.0000 C   0  0  0  0  0  0  0  0  0  0  0  0
   -1.8351    3.2209    0.0000 C   0  0  0  0  0  0  0  0  0  0  0  0
   -0.4086    3.6844    0.0000 C   0  0  0  0  0  0  0  0  0  0  0  0
    0.7062    2.6807    0.0000 N   0  0  0  0  0  0  0  0  0  0  0  0
    0.3943    1.2135    0.0000 C   0  0  0  0  0  0  0  0  0  0  0  0
    1.2760    0.0000    0.0000 N   0  0  0  0  0  0  0  0  0  0  0  0
    0.3943   -1.2135    0.0000 C   0  0  0  0  0  0  0  0  0  0  0  0
   -1.0323   -0.7500    0.0000 C   0  0  0  0  0  0  0  0  0  0  0  0
   -1.0323    0.7500    0.0000 C   0  0  0  0  0  0  0  0  0  0  0  0
   -4.0371   -0.1364    0.0000 S   0  0  0  0  0  0  0  0  0  0  0  0
  1  2  1  0
  3  2  1  6
  3  4  1  0
  4  5  1  0
  5  6  2  0
  6  7  1  0
  7  8  2  0
  8  9  1  0
  9 10  2  0
  3 11  1  0
 11 12  1  0
 12 13  2  0
 12 14  1  0
 14 15  2  0
 15 16  1  0
 16 17  1  0
 16 18  2  0
 18 19  1  0
 19 20  2  0
 20 21  1  0
 21 22  2  0
 22 23  1  0
 23 24  1  0
 24 25  1  0
 25 26  2  0
 26 27  1  0
 18 28  1  0
 10  5  1  0
 28 14  1  0
 27 19  1  0
 27 23  2  0
M  END
>  <Compound_ID>  (35) 
CHEMBL498051

>  <Active>  (35) 
1

>  <Smiles>  (35) 
NC[C@H](Cc1ccncc1)NC(=O)c1cc(Br)c(-c2ccnc3[nH]ccc23)s1

>  <canonical_smi>  (35) 
NC[C@H](Cc1ccncc1)NC(=O)c1cc(Br)c(-c2ccnc3[nH]ccc23)s1

>  <Set>  (35) 
G2 active

>  <Set_type>  (35) 
Train

>  <MW>  (35) 
456.37

>  <HBD>  (35) 
3

>  <HBA>  (35) 
4

>  <NRB>  (35) 
6

>  <NR>  (35) 
4

>  <NAR>  (35) 
4

>  <PSA>  (35) 
96.69

>  <Standard Type>  (35) 
nan

>  <Standard Relation>  (35) 
nan

>  <Standard Units>  (35) 
nan

>  <Standard Value>  (35) 
nan

>  <Assay ChEMBL ID>  (35) 
nan

>  <Assay Description>  (35) 
nan

>  <BAO Label>  (35) 
nan

>  <bits>  (35) 
<rdkit.DataStructs.cDataStructs.ExplicitBitVect object at 0x000001A32306CEB0>

>  <Group>  (35) 
G2

$$$$

     RDKit          2D

 41 47  0  0  0  0  0  0  0  0999 V2000
    3.7500   -1.2990    0.0000 C   0  0  0  0  0  0  0  0  0  0  0  0
    3.0000    0.0000    0.0000 S   0  0  0  0  0  0  0  0  0  0  0  0
    1.5000    0.0000    0.0000 C   0  0  0  0  0  0  0  0  0  0  0  0
    0.7500   -1.2990    0.0000 N   0  0  0  0  0  0  0  0  0  0  0  0
   -0.7500   -1.2990    0.0000 C   0  0  0  0  0  0  0  0  0  0  0  0
   -1.5000    0.0000    0.0000 C   0  0  0  0  0  0  0  0  0  0  0  0
   -3.0000    0.0000    0.0000 C   0  0  0  0  0  0  0  0  0  0  0  0
   -3.7500    1.2990    0.0000 C   0  0  0  0  0  0  0  0  0  0  0  0
   -5.2500    1.2990    0.0000 C   0  0  0  0  0  0  0  0  0  0  0  0
   -6.0000    2.5981    0.0000 C   0  0  0  0  0  0  0  0  0  0  0  0
   -7.5000    2.5981    0.0000 C   0  0  0  0  0  0  0  0  0  0  0  0
   -8.2500    1.2990    0.0000 C   0  0  0  0  0  0  0  0  0  0  0  0
   -7.5000    0.0000    0.0000 C   0  0  0  0  0  0  0  0  0  0  0  0
   -6.0000    0.0000    0.0000 C   0  0  0  0  0  0  0  0  0  0  0  0
   -3.0000    2.5981    0.0000 C   0  0  0  0  0  0  0  0  0  0  0  0
   -3.7500    3.8971    0.0000 C   0  0  0  0  0  0  0  0  0  0  0  0
   -3.0000    5.1962    0.0000 C   0  0  0  0  0  0  0  0  0  0  0  0
   -3.7500    6.4952    0.0000 C   0  0  0  0  0  0  0  0  0  0  0  0
   -5.2500    6.4952    0.0000 C   0  0  0  0  0  0  0  0  0  0  0  0
   -6.0000    7.7942    0.0000 C   0  0  0  0  0  0  0  0  0  0  0  0
   -5.2500    9.0933    0.0000 N   0  0  0  0  0  0  0  0  0  0  0  0
   -3.7500    9.0933    0.0000 C   0  0  0  0  0  0  0  0  0  0  0  0
   -3.0000   10.3923    0.0000 C   0  0  0  0  0  0  0  0  0  0  0  0
   -3.7500   11.6913    0.0000 C   0  0  0  0  0  0  0  0  0  0  0  0
   -3.0000   12.9904    0.0000 N   0  0  0  0  0  0  0  0  0  0  0  0
   -1.5082   13.1472    0.0000 N   0  0  0  0  0  0  0  0  0  0  0  0
   -1.1963   14.6144    0.0000 C   0  0  0  0  0  0  0  0  0  0  0  0
   -2.4954   15.3644    0.0000 C   0  0  0  0  0  0  0  0  0  0  0  0
   -2.8073   16.8316    0.0000 C   0  0  0  0  0  0  0  0  0  0  0  0
   -1.6925   17.8353    0.0000 N   0  0  0  0  0  0  0  0  0  0  0  0
   -4.2338   17.2951    0.0000 N   0  0  0  0  0  0  0  0  0  0  0  0
   -5.3486   16.2914    0.0000 C   0  0  0  0  0  0  0  0  0  0  0  0
   -5.0367   14.8242    0.0000 N   0  0  0  0  0  0  0  0  0  0  0  0
   -3.6101   14.3607    0.0000 C   0  0  0  0  0  0  0  0  0  0  0  0
   -5.2500   11.6913    0.0000 C   0  0  0  0  0  0  0  0  0  0  0  0
   -6.0000   10.3923    0.0000 C   0  0  0  0  0  0  0  0  0  0  0  0
   -6.0000    5.1962    0.0000 C   0  0  0  0  0  0  0  0  0  0  0  0
   -5.2500    3.8971    0.0000 C   0  0  0  0  0  0  0  0  0  0  0  0
   -1.5000    2.5981    0.0000 N   0  0  0  0  0  0  0  0  0  0  0  0
   -0.7500    1.2990    0.0000 C   0  0  0  0  0  0  0  0  0  0  0  0
    0.7500    1.2990    0.0000 N   0  0  0  0  0  0  0  0  0  0  0  0
  1  2  1  0
  2  3  1  0
  3  4  2  0
  4  5  1  0
  5  6  2  0
  6  7  1  0
  7  8  2  0
  8  9  1  0
  9 10  2  0
 10 11  1  0
 11 12  2  0
 12 13  1  0
 13 14  2  0
  8 15  1  0
 15 16  1  0
 16 17  2  0
 17 18  1  0
 18 19  2  0
 19 20  1  0
 20 21  1  0
 21 22  1  0
 22 23  1  0
 23 24  1  0
 24 25  1  0
 25 26  1  0
 26 27  2  0
 27 28  1  0
 28 29  2  0
 29 30  1  0
 29 31  1  0
 31 32  2  0
 32 33  1  0
 33 34  2  0
 24 35  1  0
 35 36  1  0
 19 37  1  0
 37 38  2  0
 15 39  2  0
 39 40  1  0
 40 41  2  0
 41  3  1  0
 40  6  1  0
 14  9  1  0
 38 16  1  0
 36 21  1  0
 34 25  1  0
 34 28  1  0
M  END
>  <Compound_ID>  (36) 
CHEMBL253693

>  <Active>  (36) 
1

>  <Smiles>  (36) 
CSc1ncc2cc(-c3ccccc3)c(-c3ccc(CN4CCC(n5ncc6c(N)ncnc65)CC4)cc3)nc2n1

>  <canonical_smi>  (36) 
CSc1ncc2cc(-c3ccccc3)c(-c3ccc(CN4CCC(n5ncc6c(N)ncnc65)CC4)cc3)nc2n1

>  <Set>  (36) 
G2 active

>  <Set_type>  (36) 
Train

>  <MW>  (36) 
559.7

>  <HBD>  (36) 
1

>  <HBA>  (36) 
9

>  <NRB>  (36) 
6

>  <NR>  (36) 
7

>  <NAR>  (36) 
6

>  <PSA>  (36) 
111.53

>  <Standard Type>  (36) 
nan

>  <Standard Relation>  (36) 
nan

>  <Standard Units>  (36) 
nan

>  <Standard Value>  (36) 
nan

>  <Assay ChEMBL ID>  (36) 
nan

>  <Assay Description>  (36) 
nan

>  <BAO Label>  (36) 
nan

>  <bits>  (36) 
<rdkit.DataStructs.cDataStructs.ExplicitBitVect object at 0x000001A32306CF20>

>  <Group>  (36) 
G2

$$$$

     RDKit          2D

 27 30  0  0  0  0  0  0  0  0999 V2000
   -7.8175    0.9250    0.0000 N   0  0  0  0  0  0  0  0  0  0  0  0
   -6.4268    0.3631    0.0000 C   0  0  0  0  0  0  0  0  0  0  0  0
   -7.2216   -0.9090    0.0000 C   0  0  0  0  0  0  0  0  0  0  0  0
   -8.7207   -0.8566    0.0000 N   0  0  0  0  0  0  0  0  0  0  0  0
   -9.5156   -2.1287    0.0000 C   0  0  0  0  0  0  0  0  0  0  0  0
   -8.8114   -3.4531    0.0000 O   0  0  0  0  0  0  0  0  0  0  0  0
  -11.0147   -2.0763    0.0000 C   0  0  0  0  0  0  0  0  0  0  0  0
  -11.7189   -0.7519    0.0000 C   0  0  0  0  0  0  0  0  0  0  0  0
  -13.2180   -0.6996    0.0000 C   0  0  0  0  0  0  0  0  0  0  0  0
  -14.0129   -1.9716    0.0000 C   0  0  0  0  0  0  0  0  0  0  0  0
  -15.5119   -1.9193    0.0000 Cl  0  0  0  0  0  0  0  0  0  0  0  0
  -13.3087   -3.2960    0.0000 C   0  0  0  0  0  0  0  0  0  0  0  0
  -11.8096   -3.3484    0.0000 C   0  0  0  0  0  0  0  0  0  0  0  0
   -5.3120   -0.6406    0.0000 C   0  0  0  0  0  0  0  0  0  0  0  0
   -3.8855   -0.1771    0.0000 C   0  0  0  0  0  0  0  0  0  0  0  0
   -3.5736    1.2902    0.0000 N   0  0  0  0  0  0  0  0  0  0  0  0
   -2.1470    1.7537    0.0000 C   0  0  0  0  0  0  0  0  0  0  0  0
   -1.8351    3.2209    0.0000 N   0  0  0  0  0  0  0  0  0  0  0  0
   -0.4086    3.6844    0.0000 C   0  0  0  0  0  0  0  0  0  0  0  0
    0.7062    2.6807    0.0000 N   0  0  0  0  0  0  0  0  0  0  0  0
    0.3943    1.2135    0.0000 C   0  0  0  0  0  0  0  0  0  0  0  0
    1.2760    0.0000    0.0000 N   0  0  0  0  0  0  0  0  0  0  0  0
    0.3943   -1.2135    0.0000 C   0  0  0  0  0  0  0  0  0  0  0  0
   -1.0323   -0.7500    0.0000 C   0  0  0  0  0  0  0  0  0  0  0  0
   -1.0323    0.7500    0.0000 C   0  0  0  0  0  0  0  0  0  0  0  0
   -4.6883    2.2939    0.0000 C   0  0  0  0  0  0  0  0  0  0  0  0
   -6.1149    1.8303    0.0000 C   0  0  0  0  0  0  0  0  0  0  0  0
  1  2  1  0
  2  3  1  0
  3  4  1  0
  4  5  1  0
  5  6  2  0
  5  7  1  0
  7  8  2  0
  8  9  1  0
  9 10  2  0
 10 11  1  0
 10 12  1  0
 12 13  2  0
  2 14  1  0
 14 15  1  0
 15 16  1  0
 16 17  1  0
 17 18  2  0
 18 19  1  0
 19 20  2  0
 20 21  1  0
 21 22  1  0
 22 23  1  0
 23 24  2  0
 24 25  1  0
 16 26  1  0
 26 27  1  0
 27  2  1  0
 13  7  1  0
 25 17  1  0
 25 21  2  0
M  END
>  <Compound_ID>  (37) 
CHEMBL603244

>  <Active>  (37) 
1

>  <Smiles>  (37) 
NC1(CNC(=O)c2ccc(Cl)cc2)CCN(c2ncnc3[nH]ccc23)CC1

>  <canonical_smi>  (37) 
NC1(CNC(=O)c2ccc(Cl)cc2)CCN(c2ncnc3[nH]ccc23)CC1

>  <Set>  (37) 
G2 active

>  <Set_type>  (37) 
Train

>  <MW>  (37) 
384.87

>  <HBD>  (37) 
3

>  <HBA>  (37) 
5

>  <NRB>  (37) 
4

>  <NR>  (37) 
4

>  <NAR>  (37) 
3

>  <PSA>  (37) 
99.93

>  <Standard Type>  (37) 
nan

>  <Standard Relation>  (37) 
nan

>  <Standard Units>  (37) 
nan

>  <Standard Value>  (37) 
nan

>  <Assay ChEMBL ID>  (37) 
nan

>  <Assay Description>  (37) 
nan

>  <BAO Label>  (37) 
nan

>  <bits>  (37) 
<rdkit.DataStructs.cDataStructs.ExplicitBitVect object at 0x000001A32306DC40>

>  <Group>  (37) 
G2

$$$$

     RDKit          2D

 37 41  0  0  0  0  0  0  0  0999 V2000
    3.7500   -1.2990    0.0000 C   0  0  0  0  0  0  0  0  0  0  0  0
    3.0000    0.0000    0.0000 S   0  0  0  0  0  0  0  0  0  0  0  0
    1.5000    0.0000    0.0000 C   0  0  0  0  0  0  0  0  0  0  0  0
    0.7500   -1.2990    0.0000 N   0  0  0  0  0  0  0  0  0  0  0  0
   -0.7500   -1.2990    0.0000 C   0  0  0  0  0  0  0  0  0  0  0  0
   -1.5000    0.0000    0.0000 C   0  0  0  0  0  0  0  0  0  0  0  0
   -3.0000    0.0000    0.0000 C   0  0  0  0  0  0  0  0  0  0  0  0
   -3.7500    1.2990    0.0000 C   0  0  0  0  0  0  0  0  0  0  0  0
   -5.2500    1.2990    0.0000 C   0  0  0  0  0  0  0  0  0  0  0  0
   -6.0000    2.5981    0.0000 C   0  0  0  0  0  0  0  0  0  0  0  0
   -7.5000    2.5981    0.0000 C   0  0  0  0  0  0  0  0  0  0  0  0
   -8.2500    1.2990    0.0000 C   0  0  0  0  0  0  0  0  0  0  0  0
   -7.5000    0.0000    0.0000 C   0  0  0  0  0  0  0  0  0  0  0  0
   -6.0000    0.0000    0.0000 C   0  0  0  0  0  0  0  0  0  0  0  0
   -3.0000    2.5981    0.0000 C   0  0  0  0  0  0  0  0  0  0  0  0
   -3.7500    3.8971    0.0000 C   0  0  0  0  0  0  0  0  0  0  0  0
   -3.0000    5.1962    0.0000 C   0  0  0  0  0  0  0  0  0  0  0  0
   -3.7500    6.4952    0.0000 C   0  0  0  0  0  0  0  0  0  0  0  0
   -5.2500    6.4952    0.0000 C   0  0  0  0  0  0  0  0  0  0  0  0
   -6.0000    7.7942    0.0000 C   0  0  0  0  0  0  0  0  0  0  0  0
   -5.2500    9.0933    0.0000 N   0  0  0  0  0  0  0  0  0  0  0  0
   -6.0000   10.3923    0.0000 C   0  0  0  0  0  0  0  0  0  0  0  0
   -5.2500   11.6913    0.0000 C   0  0  0  0  0  0  0  0  0  0  0  0
   -6.0000   12.9904    0.0000 C   0  0  0  0  0  0  0  0  0  0  0  0
   -7.5000   12.9904    0.0000 O   0  0  0  0  0  0  0  0  0  0  0  0
   -5.2500   14.2894    0.0000 C   0  0  0  0  0  0  0  0  0  0  0  0
   -3.7500   14.2894    0.0000 C   0  0  0  0  0  0  0  0  0  0  0  0
   -3.0000   15.5885    0.0000 C   0  0  0  0  0  0  0  0  0  0  0  0
   -3.7500   16.8875    0.0000 C   0  0  0  0  0  0  0  0  0  0  0  0
   -5.2500   16.8875    0.0000 C   0  0  0  0  0  0  0  0  0  0  0  0
   -6.0000   15.5885    0.0000 C   0  0  0  0  0  0  0  0  0  0  0  0
   -7.5000   15.5885    0.0000 N   0  0  0  0  0  0  0  0  0  0  0  0
   -6.0000    5.1962    0.0000 C   0  0  0  0  0  0  0  0  0  0  0  0
   -5.2500    3.8971    0.0000 C   0  0  0  0  0  0  0  0  0  0  0  0
   -1.5000    2.5981    0.0000 N   0  0  0  0  0  0  0  0  0  0  0  0
   -0.7500    1.2990    0.0000 C   0  0  0  0  0  0  0  0  0  0  0  0
    0.7500    1.2990    0.0000 N   0  0  0  0  0  0  0  0  0  0  0  0
  1  2  1  0
  2  3  1  0
  3  4  2  0
  4  5  1  0
  5  6  2  0
  6  7  1  0
  7  8  2  0
  8  9  1  0
  9 10  2  0
 10 11  1  0
 11 12  2  0
 12 13  1  0
 13 14  2  0
  8 15  1  0
 15 16  1  0
 16 17  2  0
 17 18  1  0
 18 19  2  0
 19 20  1  0
 20 21  1  0
 21 22  1  0
 22 23  1  0
 23 24  1  0
 24 25  2  0
 24 26  1  0
 26 27  2  0
 27 28  1  0
 28 29  2  0
 29 30  1  0
 30 31  2  0
 31 32  1  0
 19 33  1  0
 33 34  2  0
 15 35  2  0
 35 36  1  0
 36 37  2  0
 37  3  1  0
 36  6  1  0
 14  9  1  0
 34 16  1  0
 31 26  1  0
M  END
>  <Compound_ID>  (38) 
CHEMBL252456

>  <Active>  (38) 
1

>  <Smiles>  (38) 
CSc1ncc2cc(-c3ccccc3)c(-c3ccc(CNCCC(=O)c4ccccc4N)cc3)nc2n1

>  <canonical_smi>  (38) 
CSc1ncc2cc(-c3ccccc3)c(-c3ccc(CNCCC(=O)c4ccccc4N)cc3)nc2n1

>  <Set>  (38) 
G2 active

>  <Set_type>  (38) 
Train

>  <MW>  (38) 
505.65

>  <HBD>  (38) 
2

>  <HBA>  (38) 
7

>  <NRB>  (38) 
9

>  <NR>  (38) 
5

>  <NAR>  (38) 
5

>  <PSA>  (38) 
93.79

>  <Standard Type>  (38) 
nan

>  <Standard Relation>  (38) 
nan

>  <Standard Units>  (38) 
nan

>  <Standard Value>  (38) 
nan

>  <Assay ChEMBL ID>  (38) 
nan

>  <Assay Description>  (38) 
nan

>  <BAO Label>  (38) 
nan

>  <bits>  (38) 
<rdkit.DataStructs.cDataStructs.ExplicitBitVect object at 0x000001A32306DCB0>

>  <Group>  (38) 
G2

$$$$

     RDKit          2D

 42 49  0  0  0  0  0  0  0  0999 V2000
    6.9559   11.4967    0.0000 O   0  0  0  0  0  0  0  0  0  0  0  0
    6.9559   12.9967    0.0000 C   0  0  0  0  0  0  0  0  0  0  0  0
    8.1695   13.8783    0.0000 N   0  0  0  0  0  0  0  0  0  0  0  0
    7.7059   15.3049    0.0000 C   0  0  0  0  0  0  0  0  0  0  0  0
    8.4559   16.6040    0.0000 C   0  0  0  0  0  0  0  0  0  0  0  0
    7.7059   17.9030    0.0000 C   0  0  0  0  0  0  0  0  0  0  0  0
    6.2059   17.9030    0.0000 C   0  0  0  0  0  0  0  0  0  0  0  0
    5.4559   16.6040    0.0000 C   0  0  0  0  0  0  0  0  0  0  0  0
    6.2059   15.3049    0.0000 C   0  0  0  0  0  0  0  0  0  0  0  0
    5.7424   13.8783    0.0000 N   0  0  0  0  0  0  0  0  0  0  0  0
    4.3158   13.4148    0.0000 C   0  0  0  0  0  0  0  0  0  0  0  0
    3.2011   14.4185    0.0000 C   0  0  0  0  0  0  0  0  0  0  0  0
    1.7745   13.9550    0.0000 C   0  0  0  0  0  0  0  0  0  0  0  0
    1.4627   12.4878    0.0000 N   0  0  0  0  0  0  0  0  0  0  0  0
    0.0361   12.0242    0.0000 C   0  0  0  0  0  0  0  0  0  0  0  0
   -0.2758   10.5570    0.0000 C   0  0  0  0  0  0  0  0  0  0  0  0
   -1.7024   10.0935    0.0000 C   0  0  0  0  0  0  0  0  0  0  0  0
   -2.0143    8.6263    0.0000 C   0  0  0  0  0  0  0  0  0  0  0  0
   -0.8995    7.6226    0.0000 C   0  0  0  0  0  0  0  0  0  0  0  0
   -1.2114    6.1554    0.0000 C   0  0  0  0  0  0  0  0  0  0  0  0
   -0.0967    5.1517    0.0000 N   0  0  0  0  0  0  0  0  0  0  0  0
   -0.4086    3.6844    0.0000 C   0  0  0  0  0  0  0  0  0  0  0  0
    0.7062    2.6807    0.0000 C   0  0  0  0  0  0  0  0  0  0  0  0
    0.3943    1.2135    0.0000 C   0  0  0  0  0  0  0  0  0  0  0  0
    1.2760    0.0000    0.0000 N   0  0  0  0  0  0  0  0  0  0  0  0
    0.3943   -1.2135    0.0000 C   0  0  0  0  0  0  0  0  0  0  0  0
   -1.0323   -0.7500    0.0000 N   0  0  0  0  0  0  0  0  0  0  0  0
   -1.0323    0.7500    0.0000 C   0  0  0  0  0  0  0  0  0  0  0  0
   -2.1470    1.7537    0.0000 C   0  0  0  0  0  0  0  0  0  0  0  0
   -1.8351    3.2209    0.0000 C   0  0  0  0  0  0  0  0  0  0  0  0
   -2.9499    4.2246    0.0000 N   0  0  0  0  0  0  0  0  0  0  0  0
   -2.6380    5.6918    0.0000 C   0  0  0  0  0  0  0  0  0  0  0  0
   -3.7527    6.6955    0.0000 C   0  0  0  0  0  0  0  0  0  0  0  0
   -3.4408    8.1628    0.0000 C   0  0  0  0  0  0  0  0  0  0  0  0
   -4.5556    9.1664    0.0000 C   0  0  0  0  0  0  0  0  0  0  0  0
   -5.9821    8.7029    0.0000 C   0  0  0  0  0  0  0  0  0  0  0  0
   -6.2940    7.2357    0.0000 C   0  0  0  0  0  0  0  0  0  0  0  0
   -5.1793    6.2320    0.0000 C   0  0  0  0  0  0  0  0  0  0  0  0
    0.5271    8.0861    0.0000 C   0  0  0  0  0  0  0  0  0  0  0  0
    0.8389    9.5533    0.0000 C   0  0  0  0  0  0  0  0  0  0  0  0
    2.5774   11.4841    0.0000 C   0  0  0  0  0  0  0  0  0  0  0  0
    4.0040   11.9476    0.0000 C   0  0  0  0  0  0  0  0  0  0  0  0
  1  2  2  0
  2  3  1  0
  3  4  1  0
  4  5  2  0
  5  6  1  0
  6  7  2  0
  7  8  1  0
  8  9  2  0
  9 10  1  0
 10 11  1  0
 11 12  1  0
 12 13  1  0
 13 14  1  0
 14 15  1  0
 15 16  1  0
 16 17  2  0
 17 18  1  0
 18 19  2  0
 19 20  1  0
 20 21  2  0
 21 22  1  0
 22 23  2  0
 23 24  1  0
 24 25  1  0
 25 26  2  0
 26 27  1  0
 27 28  1  0
 28 29  1  0
 29 30  2  0
 30 31  1  0
 31 32  2  0
 32 33  1  0
 33 34  2  0
 34 35  1  0
 35 36  2  0
 36 37  1  0
 37 38  2  0
 19 39  1  0
 39 40  2  0
 14 41  1  0
 41 42  1  0
 10  2  1  0
 42 11  1  0
  9  4  1  0
 40 16  1  0
 32 20  1  0
 38 33  1  0
 30 22  1  0
 28 24  2  0
M  END
>  <Compound_ID>  (39) 
CHEMBL258844

>  <Active>  (39) 
1

>  <Smiles>  (39) 
O=c1[nH]c2ccccc2n1C1CCN(Cc2ccc(-c3nc4cc5nc[nH]c5cc4nc3-c3ccccc3)cc2)CC1

>  <canonical_smi>  (39) 
O=c1[nH]c2ccccc2n1C1CCN(Cc2ccc(-c3nc4cc5nc[nH]c5cc4nc3-c3ccccc3)cc2)CC1

>  <Set>  (39) 
G2 active

>  <Set_type>  (39) 
Train

>  <MW>  (39) 
551.65

>  <HBD>  (39) 
2

>  <HBA>  (39) 
5

>  <NRB>  (39) 
5

>  <NR>  (39) 
8

>  <NAR>  (39) 
7

>  <PSA>  (39) 
95.49

>  <Standard Type>  (39) 
nan

>  <Standard Relation>  (39) 
nan

>  <Standard Units>  (39) 
nan

>  <Standard Value>  (39) 
nan

>  <Assay ChEMBL ID>  (39) 
nan

>  <Assay Description>  (39) 
nan

>  <BAO Label>  (39) 
nan

>  <bits>  (39) 
<rdkit.DataStructs.cDataStructs.ExplicitBitVect object at 0x000001A32306DD20>

>  <Group>  (39) 
G2

$$$$

     RDKit          2D

 40 46  0  0  0  0  0  0  0  0999 V2000
   -1.7455  -13.3315    0.0000 C   0  0  0  0  0  0  0  0  0  0  0  0
   -0.7418  -14.4462    0.0000 C   0  0  0  0  0  0  0  0  0  0  0  0
   -1.0537  -15.9134    0.0000 N   0  0  0  0  0  0  0  0  0  0  0  0
    0.2454  -16.6634    0.0000 C   0  0  0  0  0  0  0  0  0  0  0  0
    0.5573  -18.1307    0.0000 C   0  0  0  0  0  0  0  0  0  0  0  0
    1.9838  -18.5942    0.0000 C   0  0  0  0  0  0  0  0  0  0  0  0
    3.0986  -17.5905    0.0000 C   0  0  0  0  0  0  0  0  0  0  0  0
    2.7867  -16.1233    0.0000 C   0  0  0  0  0  0  0  0  0  0  0  0
    1.3601  -15.6597    0.0000 C   0  0  0  0  0  0  0  0  0  0  0  0
    0.7500  -14.2894    0.0000 N   0  0  0  0  0  0  0  0  0  0  0  0
    1.5000  -12.9904    0.0000 C   0  0  0  0  0  0  0  0  0  0  0  0
    3.0000  -12.9904    0.0000 C   0  0  0  0  0  0  0  0  0  0  0  0
    3.7500  -11.6913    0.0000 C   0  0  0  0  0  0  0  0  0  0  0  0
    3.0000  -10.3923    0.0000 N   0  0  0  0  0  0  0  0  0  0  0  0
    3.7500   -9.0933    0.0000 C   0  0  0  0  0  0  0  0  0  0  0  0
    3.0000   -7.7942    0.0000 C   0  0  0  0  0  0  0  0  0  0  0  0
    3.7500   -6.4952    0.0000 C   0  0  0  0  0  0  0  0  0  0  0  0
    3.0000   -5.1962    0.0000 C   0  0  0  0  0  0  0  0  0  0  0  0
    1.5000   -5.1962    0.0000 C   0  0  0  0  0  0  0  0  0  0  0  0
    0.7500   -3.8971    0.0000 C   0  0  0  0  0  0  0  0  0  0  0  0
    1.5000   -2.5981    0.0000 N   0  0  0  0  0  0  0  0  0  0  0  0
    0.7500   -1.2990    0.0000 C   0  0  0  0  0  0  0  0  0  0  0  0
    1.5000    0.0000    0.0000 N   0  0  0  0  0  0  0  0  0  0  0  0
    0.7500    1.2990    0.0000 C   0  0  0  0  0  0  0  0  0  0  0  0
   -0.7500    1.2990    0.0000 N   0  0  0  0  0  0  0  0  0  0  0  0
   -1.5000    0.0000    0.0000 C   0  0  0  0  0  0  0  0  0  0  0  0
   -3.0000    0.0000    0.0000 N   0  0  0  0  0  0  0  0  0  0  0  0
   -0.7500   -1.2990    0.0000 C   0  0  0  0  0  0  0  0  0  0  0  0
   -1.5000   -2.5981    0.0000 C   0  0  0  0  0  0  0  0  0  0  0  0
   -0.7500   -3.8971    0.0000 C   0  0  0  0  0  0  0  0  0  0  0  0
   -1.5000   -5.1962    0.0000 C   0  0  0  0  0  0  0  0  0  0  0  0
   -3.0000   -5.1962    0.0000 C   0  0  0  0  0  0  0  0  0  0  0  0
   -3.7500   -6.4952    0.0000 C   0  0  0  0  0  0  0  0  0  0  0  0
   -3.0000   -7.7942    0.0000 C   0  0  0  0  0  0  0  0  0  0  0  0
   -1.5000   -7.7942    0.0000 C   0  0  0  0  0  0  0  0  0  0  0  0
   -0.7500   -6.4952    0.0000 C   0  0  0  0  0  0  0  0  0  0  0  0
    0.7500   -6.4952    0.0000 C   0  0  0  0  0  0  0  0  0  0  0  0
    1.5000   -7.7942    0.0000 C   0  0  0  0  0  0  0  0  0  0  0  0
    1.5000  -10.3923    0.0000 C   0  0  0  0  0  0  0  0  0  0  0  0
    0.7500  -11.6913    0.0000 C   0  0  0  0  0  0  0  0  0  0  0  0
  1  2  1  0
  2  3  2  0
  3  4  1  0
  4  5  2  0
  5  6  1  0
  6  7  2  0
  7  8  1  0
  8  9  2  0
  9 10  1  0
 10 11  1  0
 11 12  1  0
 12 13  1  0
 13 14  1  0
 14 15  1  0
 15 16  1  0
 16 17  2  0
 17 18  1  0
 18 19  2  0
 19 20  1  0
 20 21  2  0
 21 22  1  0
 22 23  2  0
 23 24  1  0
 24 25  2  0
 25 26  1  0
 26 27  1  0
 26 28  2  0
 28 29  1  0
 29 30  2  0
 30 31  1  0
 31 32  2  0
 32 33  1  0
 33 34  2  0
 34 35  1  0
 35 36  2  0
 19 37  1  0
 37 38  2  0
 14 39  1  0
 39 40  1  0
 10  2  1  0
 40 11  1  0
  9  4  1  0
 38 16  1  0
 30 20  1  0
 36 31  1  0
 28 22  1  0
M  END
>  <Compound_ID>  (40) 
CHEMBL402579

>  <Active>  (40) 
1

>  <Smiles>  (40) 
Cc1nc2ccccc2n1C1CCN(Cc2ccc(-c3nc4ncnc(N)c4cc3-c3ccccc3)cc2)CC1

>  <canonical_smi>  (40) 
Cc1nc2ccccc2n1C1CCN(Cc2ccc(-c3nc4ncnc(N)c4cc3-c3ccccc3)cc2)CC1

>  <Set>  (40) 
G2 active

>  <Set_type>  (40) 
Train

>  <MW>  (40) 
525.66

>  <HBD>  (40) 
1

>  <HBA>  (40) 
6

>  <NRB>  (40) 
5

>  <NR>  (40) 
7

>  <NAR>  (40) 
6

>  <PSA>  (40) 
85.75

>  <Standard Type>  (40) 
nan

>  <Standard Relation>  (40) 
nan

>  <Standard Units>  (40) 
nan

>  <Standard Value>  (40) 
nan

>  <Assay ChEMBL ID>  (40) 
nan

>  <Assay Description>  (40) 
nan

>  <BAO Label>  (40) 
nan

>  <bits>  (40) 
<rdkit.DataStructs.cDataStructs.ExplicitBitVect object at 0x000001A32306E420>

>  <Group>  (40) 
G2

$$$$

     RDKit          2D

 39 44  0  0  0  0  0  0  0  0999 V2000
    3.7500   -1.2990    0.0000 C   0  0  0  0  0  0  0  0  0  0  0  0
    3.0000    0.0000    0.0000 S   0  0  0  0  0  0  0  0  0  0  0  0
    1.5000    0.0000    0.0000 C   0  0  0  0  0  0  0  0  0  0  0  0
    0.7500   -1.2990    0.0000 N   0  0  0  0  0  0  0  0  0  0  0  0
   -0.7500   -1.2990    0.0000 C   0  0  0  0  0  0  0  0  0  0  0  0
   -1.5000    0.0000    0.0000 C   0  0  0  0  0  0  0  0  0  0  0  0
   -3.0000    0.0000    0.0000 C   0  0  0  0  0  0  0  0  0  0  0  0
   -3.7500    1.2990    0.0000 C   0  0  0  0  0  0  0  0  0  0  0  0
   -5.2500    1.2990    0.0000 C   0  0  0  0  0  0  0  0  0  0  0  0
   -6.0000    2.5981    0.0000 C   0  0  0  0  0  0  0  0  0  0  0  0
   -7.5000    2.5981    0.0000 C   0  0  0  0  0  0  0  0  0  0  0  0
   -8.2500    1.2990    0.0000 C   0  0  0  0  0  0  0  0  0  0  0  0
   -7.5000    0.0000    0.0000 C   0  0  0  0  0  0  0  0  0  0  0  0
   -6.0000    0.0000    0.0000 C   0  0  0  0  0  0  0  0  0  0  0  0
   -3.0000    2.5981    0.0000 C   0  0  0  0  0  0  0  0  0  0  0  0
   -3.7500    3.8971    0.0000 C   0  0  0  0  0  0  0  0  0  0  0  0
   -3.0000    5.1962    0.0000 C   0  0  0  0  0  0  0  0  0  0  0  0
   -3.7500    6.4952    0.0000 C   0  0  0  0  0  0  0  0  0  0  0  0
   -5.2500    6.4952    0.0000 C   0  0  0  0  0  0  0  0  0  0  0  0
   -6.0000    7.7942    0.0000 C   0  0  0  0  0  0  0  0  0  0  0  0
   -5.2500    9.0933    0.0000 N   0  0  0  0  0  0  0  0  0  0  0  0
   -6.0000   10.3923    0.0000 C   0  0  0  0  0  0  0  0  0  0  0  0
   -5.2500   11.6913    0.0000 C   0  0  0  0  0  0  0  0  0  0  0  0
   -6.0000   12.9904    0.0000 C   0  0  0  0  0  0  0  0  0  0  0  0
   -7.4918   13.1472    0.0000 N   0  0  0  0  0  0  0  0  0  0  0  0
   -7.8037   14.6144    0.0000 N   0  0  0  0  0  0  0  0  0  0  0  0
   -6.5046   15.3644    0.0000 C   0  0  0  0  0  0  0  0  0  0  0  0
   -6.3478   16.8562    0.0000 C   0  0  0  0  0  0  0  0  0  0  0  0
   -4.9775   17.4663    0.0000 C   0  0  0  0  0  0  0  0  0  0  0  0
   -4.8207   18.9581    0.0000 C   0  0  0  0  0  0  0  0  0  0  0  0
   -6.0342   19.8397    0.0000 C   0  0  0  0  0  0  0  0  0  0  0  0
   -7.4046   19.2296    0.0000 C   0  0  0  0  0  0  0  0  0  0  0  0
   -7.5613   17.7379    0.0000 C   0  0  0  0  0  0  0  0  0  0  0  0
   -5.3899   14.3607    0.0000 N   0  0  0  0  0  0  0  0  0  0  0  0
   -6.0000    5.1962    0.0000 C   0  0  0  0  0  0  0  0  0  0  0  0
   -5.2500    3.8971    0.0000 C   0  0  0  0  0  0  0  0  0  0  0  0
   -1.5000    2.5981    0.0000 N   0  0  0  0  0  0  0  0  0  0  0  0
   -0.7500    1.2990    0.0000 C   0  0  0  0  0  0  0  0  0  0  0  0
    0.7500    1.2990    0.0000 N   0  0  0  0  0  0  0  0  0  0  0  0
  1  2  1  0
  2  3  1  0
  3  4  2  0
  4  5  1  0
  5  6  2  0
  6  7  1  0
  7  8  2  0
  8  9  1  0
  9 10  2  0
 10 11  1  0
 11 12  2  0
 12 13  1  0
 13 14  2  0
  8 15  1  0
 15 16  1  0
 16 17  2  0
 17 18  1  0
 18 19  2  0
 19 20  1  0
 20 21  1  0
 21 22  1  0
 22 23  1  0
 23 24  1  0
 24 25  2  0
 25 26  1  0
 26 27  1  0
 27 28  1  0
 28 29  2  0
 29 30  1  0
 30 31  2  0
 31 32  1  0
 32 33  2  0
 27 34  2  0
 19 35  1  0
 35 36  2  0
 15 37  2  0
 37 38  1  0
 38 39  2  0
 39  3  1  0
 38  6  1  0
 14  9  1  0
 36 16  1  0
 34 24  1  0
 33 28  1  0
M  END
>  <Compound_ID>  (41) 
CHEMBL252261

>  <Active>  (41) 
1

>  <Smiles>  (41) 
CSc1ncc2cc(-c3ccccc3)c(-c3ccc(CNCCc4n[nH]c(-c5ccccc5)n4)cc3)nc2n1

>  <canonical_smi>  (41) 
CSc1ncc2cc(-c3ccccc3)c(-c3ccc(CNCCc4n[nH]c(-c5ccccc5)n4)cc3)nc2n1

>  <Set>  (41) 
G2 active

>  <Set_type>  (41) 
Train

>  <MW>  (41) 
529.67

>  <HBD>  (41) 
2

>  <HBA>  (41) 
7

>  <NRB>  (41) 
9

>  <NR>  (41) 
6

>  <NAR>  (41) 
6

>  <PSA>  (41) 
92.27

>  <Standard Type>  (41) 
nan

>  <Standard Relation>  (41) 
nan

>  <Standard Units>  (41) 
nan

>  <Standard Value>  (41) 
nan

>  <Assay ChEMBL ID>  (41) 
nan

>  <Assay Description>  (41) 
nan

>  <BAO Label>  (41) 
nan

>  <bits>  (41) 
<rdkit.DataStructs.cDataStructs.ExplicitBitVect object at 0x000001A32306E490>

>  <Group>  (41) 
G2

$$$$

     RDKit          2D

 40 46  0  0  0  0  0  0  0  0999 V2000
   -2.6401   -3.1891    0.0000 C   0  0  0  0  0  0  0  0  0  0  0  0
   -1.2135   -2.7256    0.0000 N   0  0  0  0  0  0  0  0  0  0  0  0
   -0.0000   -3.6073    0.0000 N   0  0  0  0  0  0  0  0  0  0  0  0
    1.2135   -2.7256    0.0000 C   0  0  0  0  0  0  0  0  0  0  0  0
    2.6401   -3.1891    0.0000 N   0  0  0  0  0  0  0  0  0  0  0  0
    0.7500   -1.2990    0.0000 C   0  0  0  0  0  0  0  0  0  0  0  0
    1.5000    0.0000    0.0000 C   0  0  0  0  0  0  0  0  0  0  0  0
    0.7500    1.2990    0.0000 C   0  0  0  0  0  0  0  0  0  0  0  0
    1.5000    2.5981    0.0000 C   0  0  0  0  0  0  0  0  0  0  0  0
    3.0000    2.5981    0.0000 C   0  0  0  0  0  0  0  0  0  0  0  0
    3.7500    3.8971    0.0000 C   0  0  0  0  0  0  0  0  0  0  0  0
    3.0000    5.1962    0.0000 C   0  0  0  0  0  0  0  0  0  0  0  0
    1.5000    5.1962    0.0000 C   0  0  0  0  0  0  0  0  0  0  0  0
    0.7500    3.8971    0.0000 C   0  0  0  0  0  0  0  0  0  0  0  0
   -0.7500    1.2990    0.0000 C   0  0  0  0  0  0  0  0  0  0  0  0
   -1.5000    2.5981    0.0000 C   0  0  0  0  0  0  0  0  0  0  0  0
   -0.7500    3.8971    0.0000 C   0  0  0  0  0  0  0  0  0  0  0  0
   -1.5000    5.1962    0.0000 C   0  0  0  0  0  0  0  0  0  0  0  0
   -3.0000    5.1962    0.0000 C   0  0  0  0  0  0  0  0  0  0  0  0
   -3.7500    6.4952    0.0000 C   0  0  0  0  0  0  0  0  0  0  0  0
   -3.0000    7.7942    0.0000 N   0  0  0  0  0  0  0  0  0  0  0  0
   -1.5000    7.7942    0.0000 C   0  0  0  0  0  0  0  0  0  0  0  0
   -0.7500    9.0933    0.0000 C   0  0  0  0  0  0  0  0  0  0  0  0
   -1.5000   10.3923    0.0000 C   0  0  0  0  0  0  0  0  0  0  0  0
   -0.7500   11.6913    0.0000 N   0  0  0  0  0  0  0  0  0  0  0  0
    0.7418   11.8481    0.0000 C   0  0  0  0  0  0  0  0  0  0  0  0
    1.7455   10.7334    0.0000 O   0  0  0  0  0  0  0  0  0  0  0  0
    1.0537   13.3154    0.0000 N   0  0  0  0  0  0  0  0  0  0  0  0
   -0.2454   14.0654    0.0000 C   0  0  0  0  0  0  0  0  0  0  0  0
   -0.5573   15.5326    0.0000 C   0  0  0  0  0  0  0  0  0  0  0  0
   -1.9838   15.9961    0.0000 C   0  0  0  0  0  0  0  0  0  0  0  0
   -3.0986   14.9924    0.0000 C   0  0  0  0  0  0  0  0  0  0  0  0
   -2.7867   13.5252    0.0000 C   0  0  0  0  0  0  0  0  0  0  0  0
   -1.3601   13.0617    0.0000 C   0  0  0  0  0  0  0  0  0  0  0  0
   -3.0000   10.3923    0.0000 C   0  0  0  0  0  0  0  0  0  0  0  0
   -3.7500    9.0933    0.0000 C   0  0  0  0  0  0  0  0  0  0  0  0
   -3.7500    3.8971    0.0000 C   0  0  0  0  0  0  0  0  0  0  0  0
   -3.0000    2.5981    0.0000 C   0  0  0  0  0  0  0  0  0  0  0  0
   -1.5000    0.0000    0.0000 N   0  0  0  0  0  0  0  0  0  0  0  0
   -0.7500   -1.2990    0.0000 C   0  0  0  0  0  0  0  0  0  0  0  0
  1  2  1  0
  2  3  1  0
  3  4  2  0
  4  5  1  0
  4  6  1  0
  6  7  2  0
  7  8  1  0
  8  9  1  0
  9 10  2  0
 10 11  1  0
 11 12  2  0
 12 13  1  0
 13 14  2  0
  8 15  2  0
 15 16  1  0
 16 17  2  0
 17 18  1  0
 18 19  2  0
 19 20  1  0
 20 21  1  0
 21 22  1  0
 22 23  1  0
 23 24  1  0
 24 25  1  0
 25 26  1  0
 26 27  2  0
 26 28  1  0
 28 29  1  0
 29 30  2  0
 30 31  1  0
 31 32  2  0
 32 33  1  0
 33 34  2  0
 24 35  1  0
 35 36  1  0
 19 37  1  0
 37 38  2  0
 15 39  1  0
 39 40  2  0
 40  2  1  0
 40  6  1  0
 14  9  1  0
 38 16  1  0
 36 21  1  0
 34 25  1  0
 34 29  1  0
M  END
>  <Compound_ID>  (42) 
CHEMBL401622

>  <Active>  (42) 
1

>  <Smiles>  (42) 
Cn1nc(N)c2cc(-c3ccccc3)c(-c3ccc(CN4CCC(n5c(=O)[nH]c6ccccc65)CC4)cc3)nc21

>  <canonical_smi>  (42) 
Cn1nc(N)c2cc(-c3ccccc3)c(-c3ccc(CN4CCC(n5c(=O)[nH]c6ccccc65)CC4)cc3)nc21

>  <Set>  (42) 
G2 active

>  <Set_type>  (42) 
Train

>  <MW>  (42) 
529.65

>  <HBD>  (42) 
2

>  <HBA>  (42) 
5

>  <NRB>  (42) 
5

>  <NR>  (42) 
7

>  <NAR>  (42) 
6

>  <PSA>  (42) 
97.76

>  <Standard Type>  (42) 
nan

>  <Standard Relation>  (42) 
nan

>  <Standard Units>  (42) 
nan

>  <Standard Value>  (42) 
nan

>  <Assay ChEMBL ID>  (42) 
nan

>  <Assay Description>  (42) 
nan

>  <BAO Label>  (42) 
nan

>  <bits>  (42) 
<rdkit.DataStructs.cDataStructs.ExplicitBitVect object at 0x000001A32306E650>

>  <Group>  (42) 
G2

$$$$

     RDKit          2D

 34 38  0  0  0  0  0  0  0  0999 V2000
    3.7500   -1.2990    0.0000 C   0  0  0  0  0  0  0  0  0  0  0  0
    3.0000    0.0000    0.0000 S   0  0  0  0  0  0  0  0  0  0  0  0
    1.5000    0.0000    0.0000 C   0  0  0  0  0  0  0  0  0  0  0  0
    0.7500   -1.2990    0.0000 N   0  0  0  0  0  0  0  0  0  0  0  0
   -0.7500   -1.2990    0.0000 C   0  0  0  0  0  0  0  0  0  0  0  0
   -1.5000    0.0000    0.0000 C   0  0  0  0  0  0  0  0  0  0  0  0
   -3.0000    0.0000    0.0000 C   0  0  0  0  0  0  0  0  0  0  0  0
   -3.7500    1.2990    0.0000 C   0  0  0  0  0  0  0  0  0  0  0  0
   -5.2500    1.2990    0.0000 C   0  0  0  0  0  0  0  0  0  0  0  0
   -6.0000    2.5981    0.0000 C   0  0  0  0  0  0  0  0  0  0  0  0
   -7.5000    2.5981    0.0000 C   0  0  0  0  0  0  0  0  0  0  0  0
   -8.2500    1.2990    0.0000 C   0  0  0  0  0  0  0  0  0  0  0  0
   -7.5000    0.0000    0.0000 C   0  0  0  0  0  0  0  0  0  0  0  0
   -6.0000    0.0000    0.0000 C   0  0  0  0  0  0  0  0  0  0  0  0
   -3.0000    2.5981    0.0000 C   0  0  0  0  0  0  0  0  0  0  0  0
   -3.7500    3.8971    0.0000 C   0  0  0  0  0  0  0  0  0  0  0  0
   -3.0000    5.1962    0.0000 C   0  0  0  0  0  0  0  0  0  0  0  0
   -3.7500    6.4952    0.0000 C   0  0  0  0  0  0  0  0  0  0  0  0
   -5.2500    6.4952    0.0000 C   0  0  0  0  0  0  0  0  0  0  0  0
   -6.0000    7.7942    0.0000 C   0  0  0  0  0  0  0  0  0  0  0  0
   -5.2500    9.0933    0.0000 N   0  0  0  0  0  0  0  0  0  0  0  0
   -3.7500    9.0933    0.0000 C   0  0  0  0  0  0  0  0  0  0  0  0
   -3.0000   10.3923    0.0000 C   0  0  0  0  0  0  0  0  0  0  0  0
   -3.7500   11.6913    0.0000 C   0  0  0  0  0  0  0  0  0  0  0  0
   -3.0000   12.9904    0.0000 C   0  0  0  0  0  0  0  0  0  0  0  0
   -1.5000   12.9904    0.0000 N   0  0  0  0  0  0  0  0  0  0  0  0
   -3.7500   14.2894    0.0000 O   0  0  0  0  0  0  0  0  0  0  0  0
   -5.2500   11.6913    0.0000 C   0  0  0  0  0  0  0  0  0  0  0  0
   -6.0000   10.3923    0.0000 C   0  0  0  0  0  0  0  0  0  0  0  0
   -6.0000    5.1962    0.0000 C   0  0  0  0  0  0  0  0  0  0  0  0
   -5.2500    3.8971    0.0000 C   0  0  0  0  0  0  0  0  0  0  0  0
   -1.5000    2.5981    0.0000 N   0  0  0  0  0  0  0  0  0  0  0  0
   -0.7500    1.2990    0.0000 C   0  0  0  0  0  0  0  0  0  0  0  0
    0.7500    1.2990    0.0000 N   0  0  0  0  0  0  0  0  0  0  0  0
  1  2  1  0
  2  3  1  0
  3  4  2  0
  4  5  1  0
  5  6  2  0
  6  7  1  0
  7  8  2  0
  8  9  1  0
  9 10  2  0
 10 11  1  0
 11 12  2  0
 12 13  1  0
 13 14  2  0
  8 15  1  0
 15 16  1  0
 16 17  2  0
 17 18  1  0
 18 19  2  0
 19 20  1  0
 20 21  1  0
 21 22  1  0
 22 23  1  0
 23 24  1  0
 24 25  1  0
 25 26  1  0
 25 27  2  0
 24 28  1  0
 28 29  1  0
 19 30  1  0
 30 31  2  0
 15 32  2  0
 32 33  1  0
 33 34  2  0
 34  3  1  0
 33  6  1  0
 14  9  1  0
 31 16  1  0
 29 21  1  0
M  END
>  <Compound_ID>  (43) 
CHEMBL252457

>  <Active>  (43) 
1

>  <Smiles>  (43) 
CSc1ncc2cc(-c3ccccc3)c(-c3ccc(CN4CCC(C(N)=O)CC4)cc3)nc2n1

>  <canonical_smi>  (43) 
CSc1ncc2cc(-c3ccccc3)c(-c3ccc(CN4CCC(C(N)=O)CC4)cc3)nc2n1

>  <Set>  (43) 
G2 active

>  <Set_type>  (43) 
Train

>  <MW>  (43) 
469.61

>  <HBD>  (43) 
1

>  <HBA>  (43) 
6

>  <NRB>  (43) 
6

>  <NR>  (43) 
5

>  <NAR>  (43) 
4

>  <PSA>  (43) 
85.0

>  <Standard Type>  (43) 
nan

>  <Standard Relation>  (43) 
nan

>  <Standard Units>  (43) 
nan

>  <Standard Value>  (43) 
nan

>  <Assay ChEMBL ID>  (43) 
nan

>  <Assay Description>  (43) 
nan

>  <BAO Label>  (43) 
nan

>  <bits>  (43) 
<rdkit.DataStructs.cDataStructs.ExplicitBitVect object at 0x000001A32306EF80>

>  <Group>  (43) 
G2

$$$$

     RDKit          2D

 31 34  0  0  0  0  0  0  0  0999 V2000
   -3.7548   -2.1855    0.0000 C   0  0  0  0  0  0  0  0  0  0  0  0
   -2.6401   -3.1891    0.0000 C   0  0  0  0  0  0  0  0  0  0  0  0
   -1.2135   -2.7256    0.0000 N   0  0  0  0  0  0  0  0  0  0  0  0
   -0.0000   -3.6073    0.0000 C   0  0  0  0  0  0  0  0  0  0  0  0
   -0.0000   -5.1073    0.0000 C   0  0  0  0  0  0  0  0  0  0  0  0
    1.2135   -5.9890    0.0000 N   0  0  0  0  0  0  0  0  0  0  0  0
    0.7500   -7.4156    0.0000 O   0  0  0  0  0  0  0  0  0  0  0  0
   -0.7500   -7.4156    0.0000 N   0  0  0  0  0  0  0  0  0  0  0  0
   -1.2135   -5.9890    0.0000 C   0  0  0  0  0  0  0  0  0  0  0  0
   -2.6401   -5.5255    0.0000 N   0  0  0  0  0  0  0  0  0  0  0  0
    1.2135   -2.7256    0.0000 N   0  0  0  0  0  0  0  0  0  0  0  0
    0.7500   -1.2990    0.0000 C   0  0  0  0  0  0  0  0  0  0  0  0
    1.5000    0.0000    0.0000 C   0  0  0  0  0  0  0  0  0  0  0  0
    3.0000    0.0000    0.0000 C   0  0  0  0  0  0  0  0  0  0  0  0
    4.5000    0.0000    0.0000 C   0  0  0  0  0  0  0  0  0  0  0  0
    6.0000    0.0000    0.0000 C   0  0  0  0  0  0  0  0  0  0  0  0
    6.0000   -1.5000    0.0000 C   0  0  0  0  0  0  0  0  0  0  0  0
    6.0000    1.5000    0.0000 C   0  0  0  0  0  0  0  0  0  0  0  0
    7.5000    0.0000    0.0000 O   0  0  0  0  0  0  0  0  0  0  0  0
    0.7500    1.2990    0.0000 N   0  0  0  0  0  0  0  0  0  0  0  0
   -0.7500    1.2990    0.0000 C   0  0  0  0  0  0  0  0  0  0  0  0
   -1.5000    0.0000    0.0000 C   0  0  0  0  0  0  0  0  0  0  0  0
   -3.0000    0.0000    0.0000 O   0  0  0  0  0  0  0  0  0  0  0  0
   -3.7500    1.2990    0.0000 C   0  0  0  0  0  0  0  0  0  0  0  0
   -5.2500    1.2990    0.0000 C   0  0  0  0  0  0  0  0  0  0  0  0
   -6.0000    2.5981    0.0000 C   0  0  0  0  0  0  0  0  0  0  0  0
   -7.5000    2.5981    0.0000 C   0  0  0  0  0  0  0  0  0  0  0  0
   -8.2500    1.2990    0.0000 C   0  0  0  0  0  0  0  0  0  0  0  0
   -7.5000    0.0000    0.0000 N   0  0  0  0  0  0  0  0  0  0  0  0
   -6.0000    0.0000    0.0000 C   0  0  0  0  0  0  0  0  0  0  0  0
   -0.7500   -1.2990    0.0000 C   0  0  0  0  0  0  0  0  0  0  0  0
  1  2  1  0
  2  3  1  0
  3  4  1  0
  4  5  1  0
  5  6  2  0
  6  7  1  0
  7  8  1  0
  8  9  2  0
  9 10  1  0
  4 11  2  0
 11 12  1  0
 12 13  2  0
 13 14  1  0
 14 15  3  0
 15 16  1  0
 16 17  1  0
 16 18  1  0
 16 19  1  0
 13 20  1  0
 20 21  2  0
 21 22  1  0
 22 23  1  0
 23 24  1  0
 25 24  1  6
 25 26  1  0
 26 27  1  0
 27 28  1  0
 28 29  1  0
 29 30  1  0
 22 31  2  0
 31  3  1  0
  9  5  1  0
 31 12  1  0
 30 25  1  0
M  END
>  <Compound_ID>  (44) 
CHEMBL494089

>  <Active>  (44) 
1

>  <Smiles>  (44) 
CCn1c(-c2nonc2N)nc2c(C#CC(C)(C)O)ncc(OC[C@H]3CCCNC3)c21

>  <canonical_smi>  (44) 
CCn1c(-c2nonc2N)nc2c(C#CC(C)(C)O)ncc(OC[C@H]3CCCNC3)c21

>  <Set>  (44) 
G2 active

>  <Set_type>  (44) 
Test

>  <MW>  (44) 
425.49

>  <HBD>  (44) 
3

>  <HBA>  (44) 
9

>  <NRB>  (44) 
5

>  <NR>  (44) 
4

>  <NAR>  (44) 
3

>  <PSA>  (44) 
137.14

>  <Standard Type>  (44) 
nan

>  <Standard Relation>  (44) 
nan

>  <Standard Units>  (44) 
nan

>  <Standard Value>  (44) 
nan

>  <Assay ChEMBL ID>  (44) 
nan

>  <Assay Description>  (44) 
nan

>  <BAO Label>  (44) 
nan

>  <bits>  (44) 
<rdkit.DataStructs.cDataStructs.ExplicitBitVect object at 0x000001A32306F060>

>  <Group>  (44) 
G2

$$$$

     RDKit          2D

 42 48  0  0  0  0  0  0  0  0999 V2000
    0.8726  -22.6306    0.0000 O   0  0  0  0  0  0  0  0  0  0  0  0
    0.7158  -21.1388    0.0000 C   0  0  0  0  0  0  0  0  0  0  0  0
   -0.6546  -20.5287    0.0000 C   0  0  0  0  0  0  0  0  0  0  0  0
   -0.8113  -19.0369    0.0000 C   0  0  0  0  0  0  0  0  0  0  0  0
    0.4022  -18.1552    0.0000 C   0  0  0  0  0  0  0  0  0  0  0  0
    0.2454  -16.6634    0.0000 C   0  0  0  0  0  0  0  0  0  0  0  0
   -1.0537  -15.9134    0.0000 N   0  0  0  0  0  0  0  0  0  0  0  0
   -0.7418  -14.4462    0.0000 N   0  0  0  0  0  0  0  0  0  0  0  0
    0.7500  -14.2894    0.0000 C   0  0  0  0  0  0  0  0  0  0  0  0
    1.5000  -12.9904    0.0000 C   0  0  0  0  0  0  0  0  0  0  0  0
    3.0000  -12.9904    0.0000 C   0  0  0  0  0  0  0  0  0  0  0  0
    3.7500  -11.6913    0.0000 C   0  0  0  0  0  0  0  0  0  0  0  0
    3.0000  -10.3923    0.0000 N   0  0  0  0  0  0  0  0  0  0  0  0
    3.7500   -9.0933    0.0000 C   0  0  0  0  0  0  0  0  0  0  0  0
    3.0000   -7.7942    0.0000 C   0  0  0  0  0  0  0  0  0  0  0  0
    3.7500   -6.4952    0.0000 C   0  0  0  0  0  0  0  0  0  0  0  0
    3.0000   -5.1962    0.0000 C   0  0  0  0  0  0  0  0  0  0  0  0
    1.5000   -5.1962    0.0000 C   0  0  0  0  0  0  0  0  0  0  0  0
    0.7500   -3.8971    0.0000 C   0  0  0  0  0  0  0  0  0  0  0  0
    1.5000   -2.5981    0.0000 N   0  0  0  0  0  0  0  0  0  0  0  0
    0.7500   -1.2990    0.0000 C   0  0  0  0  0  0  0  0  0  0  0  0
    1.5000    0.0000    0.0000 C   0  0  0  0  0  0  0  0  0  0  0  0
    0.7500    1.2990    0.0000 C   0  0  0  0  0  0  0  0  0  0  0  0
   -0.7500    1.2990    0.0000 N   0  0  0  0  0  0  0  0  0  0  0  0
   -1.5000    0.0000    0.0000 C   0  0  0  0  0  0  0  0  0  0  0  0
   -3.0000    0.0000    0.0000 O   0  0  0  0  0  0  0  0  0  0  0  0
   -0.7500   -1.2990    0.0000 C   0  0  0  0  0  0  0  0  0  0  0  0
   -1.5000   -2.5981    0.0000 C   0  0  0  0  0  0  0  0  0  0  0  0
   -0.7500   -3.8971    0.0000 C   0  0  0  0  0  0  0  0  0  0  0  0
   -1.5000   -5.1962    0.0000 C   0  0  0  0  0  0  0  0  0  0  0  0
   -3.0000   -5.1962    0.0000 C   0  0  0  0  0  0  0  0  0  0  0  0
   -3.7500   -6.4952    0.0000 C   0  0  0  0  0  0  0  0  0  0  0  0
   -3.0000   -7.7942    0.0000 C   0  0  0  0  0  0  0  0  0  0  0  0
   -1.5000   -7.7942    0.0000 C   0  0  0  0  0  0  0  0  0  0  0  0
   -0.7500   -6.4952    0.0000 C   0  0  0  0  0  0  0  0  0  0  0  0
    0.7500   -6.4952    0.0000 C   0  0  0  0  0  0  0  0  0  0  0  0
    1.5000   -7.7942    0.0000 C   0  0  0  0  0  0  0  0  0  0  0  0
    1.5000  -10.3923    0.0000 C   0  0  0  0  0  0  0  0  0  0  0  0
    0.7500  -11.6913    0.0000 C   0  0  0  0  0  0  0  0  0  0  0  0
    1.3601  -15.6597    0.0000 N   0  0  0  0  0  0  0  0  0  0  0  0
    1.7725  -18.7653    0.0000 C   0  0  0  0  0  0  0  0  0  0  0  0
    1.9293  -20.2571    0.0000 N   0  0  0  0  0  0  0  0  0  0  0  0
  1  2  2  0
  2  3  1  0
  3  4  2  0
  4  5  1  0
  5  6  1  0
  6  7  2  0
  7  8  1  0
  8  9  2  0
  9 10  1  0
 10 11  1  0
 11 12  1  0
 12 13  1  0
 13 14  1  0
 14 15  1  0
 15 16  2  0
 16 17  1  0
 17 18  2  0
 18 19  1  0
 19 20  2  0
 20 21  1  0
 21 22  1  0
 22 23  2  0
 23 24  1  0
 24 25  1  0
 25 26  2  0
 25 27  1  0
 27 28  1  0
 28 29  2  0
 29 30  1  0
 30 31  2  0
 31 32  1  0
 32 33  2  0
 33 34  1  0
 34 35  2  0
 18 36  1  0
 36 37  2  0
 13 38  1  0
 38 39  1  0
  9 40  1  0
  5 41  2  0
 41 42  1  0
 42  2  1  0
 40  6  1  0
 39 10  1  0
 37 15  1  0
 29 19  1  0
 35 30  1  0
 27 21  2  0
M  END
>  <Compound_ID>  (45) 
CHEMBL488428

>  <Active>  (45) 
1

>  <Smiles>  (45) 
O=c1ccc(-c2nnc(C3CCN(Cc4ccc(-c5nc6cc[nH]c(=O)c6cc5-c5ccccc5)cc4)CC3)[nH]2)c[nH]1

>  <canonical_smi>  (45) 
O=c1ccc(-c2nnc(C3CCN(Cc4ccc(-c5nc6cc[nH]c(=O)c6cc5-c5ccccc5)cc4)CC3)[nH]2)c[nH]1

>  <Set>  (45) 
G2 active

>  <Set_type>  (45) 
Test

>  <MW>  (45) 
555.64

>  <HBD>  (45) 
3

>  <HBA>  (45) 
6

>  <NRB>  (45) 
6

>  <NR>  (45) 
7

>  <NAR>  (45) 
6

>  <PSA>  (45) 
123.42

>  <Standard Type>  (45) 
nan

>  <Standard Relation>  (45) 
nan

>  <Standard Units>  (45) 
nan

>  <Standard Value>  (45) 
nan

>  <Assay ChEMBL ID>  (45) 
nan

>  <Assay Description>  (45) 
nan

>  <BAO Label>  (45) 
nan

>  <bits>  (45) 
<rdkit.DataStructs.cDataStructs.ExplicitBitVect object at 0x000001A32306F370>

>  <Group>  (45) 
G2

$$$$

     RDKit          2D

 30 33  0  0  0  0  0  0  0  0999 V2000
   -3.7548   -2.1855    0.0000 C   0  0  0  0  0  0  0  0  0  0  0  0
   -2.6401   -3.1891    0.0000 C   0  0  0  0  0  0  0  0  0  0  0  0
   -1.2135   -2.7256    0.0000 N   0  0  0  0  0  0  0  0  0  0  0  0
   -0.0000   -3.6073    0.0000 C   0  0  0  0  0  0  0  0  0  0  0  0
   -0.0000   -5.1073    0.0000 C   0  0  0  0  0  0  0  0  0  0  0  0
    1.2135   -5.9890    0.0000 N   0  0  0  0  0  0  0  0  0  0  0  0
    0.7500   -7.4156    0.0000 O   0  0  0  0  0  0  0  0  0  0  0  0
   -0.7500   -7.4156    0.0000 N   0  0  0  0  0  0  0  0  0  0  0  0
   -1.2135   -5.9890    0.0000 C   0  0  0  0  0  0  0  0  0  0  0  0
   -2.6401   -5.5255    0.0000 N   0  0  0  0  0  0  0  0  0  0  0  0
    1.2135   -2.7256    0.0000 N   0  0  0  0  0  0  0  0  0  0  0  0
    0.7500   -1.2990    0.0000 C   0  0  0  0  0  0  0  0  0  0  0  0
    1.5000    0.0000    0.0000 C   0  0  0  0  0  0  0  0  0  0  0  0
    3.0000    0.0000    0.0000 C   0  0  0  0  0  0  0  0  0  0  0  0
    4.5000    0.0000    0.0000 C   0  0  0  0  0  0  0  0  0  0  0  0
    6.0000    0.0000    0.0000 C   0  0  0  0  0  0  0  0  0  0  0  0
    6.0000   -1.5000    0.0000 C   0  0  0  0  0  0  0  0  0  0  0  0
    6.0000    1.5000    0.0000 C   0  0  0  0  0  0  0  0  0  0  0  0
    7.5000    0.0000    0.0000 O   0  0  0  0  0  0  0  0  0  0  0  0
    0.7500    1.2990    0.0000 N   0  0  0  0  0  0  0  0  0  0  0  0
   -0.7500    1.2990    0.0000 C   0  0  0  0  0  0  0  0  0  0  0  0
   -1.5000    0.0000    0.0000 C   0  0  0  0  0  0  0  0  0  0  0  0
   -3.0000    0.0000    0.0000 O   0  0  0  0  0  0  0  0  0  0  0  0
   -3.7500    1.2990    0.0000 C   0  0  0  0  0  0  0  0  0  0  0  0
   -3.0000    2.5981    0.0000 C   0  0  0  0  0  0  0  0  0  0  0  0
   -3.7500    3.8971    0.0000 C   0  0  0  0  0  0  0  0  0  0  0  0
   -5.2500    3.8971    0.0000 N   0  0  0  0  0  0  0  0  0  0  0  0
   -6.0000    2.5981    0.0000 C   0  0  0  0  0  0  0  0  0  0  0  0
   -5.2500    1.2990    0.0000 C   0  0  0  0  0  0  0  0  0  0  0  0
   -0.7500   -1.2990    0.0000 C   0  0  0  0  0  0  0  0  0  0  0  0
  1  2  1  0
  2  3  1  0
  3  4  1  0
  4  5  1  0
  5  6  2  0
  6  7  1  0
  7  8  1  0
  8  9  2  0
  9 10  1  0
  4 11  2  0
 11 12  1  0
 12 13  2  0
 13 14  1  0
 14 15  3  0
 15 16  1  0
 16 17  1  0
 16 18  1  0
 16 19  1  0
 13 20  1  0
 20 21  2  0
 21 22  1  0
 22 23  1  0
 23 24  1  0
 24 25  1  0
 25 26  1  0
 26 27  1  0
 27 28  1  0
 28 29  1  0
 22 30  2  0
 30  3  1  0
  9  5  1  0
 30 12  1  0
 29 24  1  0
M  END
>  <Compound_ID>  (46) 
CHEMBL522857

>  <Active>  (46) 
1

>  <Smiles>  (46) 
CCn1c(-c2nonc2N)nc2c(C#CC(C)(C)O)ncc(OC3CCNCC3)c21

>  <canonical_smi>  (46) 
CCn1c(-c2nonc2N)nc2c(C#CC(C)(C)O)ncc(OC3CCNCC3)c21

>  <Set>  (46) 
G2 active

>  <Set_type>  (46) 
Test

>  <MW>  (46) 
411.47

>  <HBD>  (46) 
3

>  <HBA>  (46) 
9

>  <NRB>  (46) 
4

>  <NR>  (46) 
4

>  <NAR>  (46) 
3

>  <PSA>  (46) 
137.14

>  <Standard Type>  (46) 
nan

>  <Standard Relation>  (46) 
nan

>  <Standard Units>  (46) 
nan

>  <Standard Value>  (46) 
nan

>  <Assay ChEMBL ID>  (46) 
nan

>  <Assay Description>  (46) 
nan

>  <BAO Label>  (46) 
nan

>  <bits>  (46) 
<rdkit.DataStructs.cDataStructs.ExplicitBitVect object at 0x000001A32306F680>

>  <Group>  (46) 
G2

$$$$

     RDKit          2D

 30 33  0  0  0  0  0  0  0  0999 V2000
    5.2500   -1.2990    0.0000 N   0  0  0  0  0  0  0  0  0  0  0  0
    3.7500   -1.2990    0.0000 C   0  0  0  0  0  0  0  0  0  0  0  0
    3.0000   -2.5981    0.0000 O   0  0  0  0  0  0  0  0  0  0  0  0
    3.0000    0.0000    0.0000 N   0  0  0  0  0  0  0  0  0  0  0  0
    1.5000    0.0000    0.0000 C   0  0  0  0  0  0  0  0  0  0  0  0
    0.7500   -1.2990    0.0000 C   0  0  0  0  0  0  0  0  0  0  0  0
   -0.7500   -1.2990    0.0000 C   0  0  0  0  0  0  0  0  0  0  0  0
   -1.5000    0.0000    0.0000 C   0  0  0  0  0  0  0  0  0  0  0  0
   -0.7500    1.2990    0.0000 C   0  0  0  0  0  0  0  0  0  0  0  0
    0.7500    1.2990    0.0000 C   0  0  0  0  0  0  0  0  0  0  0  0
   -1.7537    2.4138    0.0000 C   0  0  0  0  0  0  0  0  0  0  0  0
   -1.4418    3.8810    0.0000 C   0  0  0  0  0  0  0  0  0  0  0  0
   -2.5565    4.8847    0.0000 C   0  0  0  0  0  0  0  0  0  0  0  0
   -4.0238    4.5728    0.0000 C   0  0  0  0  0  0  0  0  0  0  0  0
   -4.7738    5.8718    0.0000 C   0  0  0  0  0  0  0  0  0  0  0  0
   -6.2655    6.0286    0.0000 C   0  0  0  0  0  0  0  0  0  0  0  0
   -7.1472    4.8151    0.0000 O   0  0  0  0  0  0  0  0  0  0  0  0
   -6.8757    7.3990    0.0000 N   0  0  0  0  0  0  0  0  0  0  0  0
   -8.3674    7.5557    0.0000 C   0  0  0  0  0  0  0  0  0  0  0  0
   -8.9775    8.9261    0.0000 C   0  0  0  0  0  0  0  0  0  0  0  0
  -10.4693    9.0829    0.0000 C   0  0  0  0  0  0  0  0  0  0  0  0
  -11.4730    7.9681    0.0000 C   0  0  0  0  0  0  0  0  0  0  0  0
  -12.8433    8.5782    0.0000 N   0  0  0  0  0  0  0  0  0  0  0  0
  -12.6865   10.0700    0.0000 C   0  0  0  0  0  0  0  0  0  0  0  0
  -11.2193   10.3819    0.0000 N   0  0  0  0  0  0  0  0  0  0  0  0
   -3.7701    6.9866    0.0000 C   0  0  0  0  0  0  0  0  0  0  0  0
   -2.3998    6.3765    0.0000 N   0  0  0  0  0  0  0  0  0  0  0  0
   -3.1240    1.8037    0.0000 C   0  0  0  0  0  0  0  0  0  0  0  0
   -4.4231    2.5537    0.0000 O   0  0  0  0  0  0  0  0  0  0  0  0
   -2.9672    0.3119    0.0000 N   0  0  0  0  0  0  0  0  0  0  0  0
  1  2  1  0
  2  3  2  0
  2  4  1  0
  4  5  1  0
  5  6  2  0
  6  7  1  0
  7  8  2  0
  8  9  1  0
  9 10  2  0
  9 11  1  0
 11 12  2  0
 12 13  1  0
 13 14  2  0
 14 15  1  0
 15 16  1  0
 16 17  2  0
 16 18  1  0
 18 19  1  0
 19 20  1  0
 20 21  1  0
 21 22  2  0
 22 23  1  0
 23 24  2  0
 24 25  1  0
 15 26  2  0
 26 27  1  0
 11 28  1  0
 28 29  2  0
 28 30  1  0
 10  5  1  0
 27 13  1  0
 30  8  1  0
 25 21  1  0
M  END
>  <Compound_ID>  (47) 
CHEMBL228749

>  <Active>  (47) 
1

>  <Smiles>  (47) 
NC(=O)Nc1ccc2c(c1)/C(=C/c1cc(C(=O)NCCc3cnc[nH]3)c[nH]1)C(=O)N2

>  <canonical_smi>  (47) 
NC(=O)Nc1ccc2c(c1)/C(=C/c1cc(C(=O)NCCc3cnc[nH]3)c[nH]1)C(=O)N2

>  <Set>  (47) 
G2 active

>  <Set_type>  (47) 
Test

>  <MW>  (47) 
405.42

>  <HBD>  (47) 
6

>  <HBA>  (47) 
4

>  <NRB>  (47) 
6

>  <NR>  (47) 
4

>  <NAR>  (47) 
3

>  <PSA>  (47) 
157.79

>  <Standard Type>  (47) 
nan

>  <Standard Relation>  (47) 
nan

>  <Standard Units>  (47) 
nan

>  <Standard Value>  (47) 
nan

>  <Assay ChEMBL ID>  (47) 
nan

>  <Assay Description>  (47) 
nan

>  <BAO Label>  (47) 
nan

>  <bits>  (47) 
<rdkit.DataStructs.cDataStructs.ExplicitBitVect object at 0x000001A32306F7D0>

>  <Group>  (47) 
G2

$$$$

     RDKit          2D

 44 51  0  0  0  0  0  0  0  0999 V2000
   -1.7455  -13.3315    0.0000 O   0  0  0  0  0  0  0  0  0  0  0  0
   -0.7418  -14.4462    0.0000 C   0  0  0  0  0  0  0  0  0  0  0  0
   -1.0537  -15.9134    0.0000 N   0  0  0  0  0  0  0  0  0  0  0  0
    0.2454  -16.6634    0.0000 C   0  0  0  0  0  0  0  0  0  0  0  0
    0.5573  -18.1307    0.0000 C   0  0  0  0  0  0  0  0  0  0  0  0
    1.9838  -18.5942    0.0000 C   0  0  0  0  0  0  0  0  0  0  0  0
    3.0986  -17.5905    0.0000 C   0  0  0  0  0  0  0  0  0  0  0  0
    2.7867  -16.1233    0.0000 C   0  0  0  0  0  0  0  0  0  0  0  0
    1.3601  -15.6597    0.0000 C   0  0  0  0  0  0  0  0  0  0  0  0
    0.7500  -14.2894    0.0000 N   0  0  0  0  0  0  0  0  0  0  0  0
    1.5000  -12.9904    0.0000 C   0  0  0  0  0  0  0  0  0  0  0  0
    3.0000  -12.9904    0.0000 C   0  0  0  0  0  0  0  0  0  0  0  0
    3.7500  -11.6913    0.0000 C   0  0  0  0  0  0  0  0  0  0  0  0
    3.0000  -10.3923    0.0000 N   0  0  0  0  0  0  0  0  0  0  0  0
    3.7500   -9.0933    0.0000 C   0  0  0  0  0  0  0  0  0  0  0  0
    3.0000   -7.7942    0.0000 C   0  0  0  0  0  0  0  0  0  0  0  0
    3.7500   -6.4952    0.0000 C   0  0  0  0  0  0  0  0  0  0  0  0
    3.0000   -5.1962    0.0000 C   0  0  0  0  0  0  0  0  0  0  0  0
    1.5000   -5.1962    0.0000 C   0  0  0  0  0  0  0  0  0  0  0  0
    0.7500   -3.8971    0.0000 C   0  0  0  0  0  0  0  0  0  0  0  0
    1.5000   -2.5981    0.0000 N   0  0  0  0  0  0  0  0  0  0  0  0
    0.7500   -1.2990    0.0000 C   0  0  0  0  0  0  0  0  0  0  0  0
    1.5000    0.0000    0.0000 C   0  0  0  0  0  0  0  0  0  0  0  0
    0.7500    1.2990    0.0000 C   0  0  0  0  0  0  0  0  0  0  0  0
   -0.7500    1.2990    0.0000 C   0  0  0  0  0  0  0  0  0  0  0  0
   -1.5000    2.5981    0.0000 C   0  0  0  0  0  0  0  0  0  0  0  0
   -2.9918    2.7549    0.0000 N   0  0  0  0  0  0  0  0  0  0  0  0
   -3.3037    4.2221    0.0000 N   0  0  0  0  0  0  0  0  0  0  0  0
   -2.0046    4.9721    0.0000 N   0  0  0  0  0  0  0  0  0  0  0  0
   -0.8899    3.9684    0.0000 N   0  0  0  0  0  0  0  0  0  0  0  0
   -1.5000    0.0000    0.0000 C   0  0  0  0  0  0  0  0  0  0  0  0
   -0.7500   -1.2990    0.0000 C   0  0  0  0  0  0  0  0  0  0  0  0
   -1.5000   -2.5981    0.0000 N   0  0  0  0  0  0  0  0  0  0  0  0
   -0.7500   -3.8971    0.0000 C   0  0  0  0  0  0  0  0  0  0  0  0
   -1.5000   -5.1962    0.0000 C   0  0  0  0  0  0  0  0  0  0  0  0
   -3.0000   -5.1962    0.0000 C   0  0  0  0  0  0  0  0  0  0  0  0
   -3.7500   -6.4952    0.0000 C   0  0  0  0  0  0  0  0  0  0  0  0
   -3.0000   -7.7942    0.0000 C   0  0  0  0  0  0  0  0  0  0  0  0
   -1.5000   -7.7942    0.0000 C   0  0  0  0  0  0  0  0  0  0  0  0
   -0.7500   -6.4952    0.0000 C   0  0  0  0  0  0  0  0  0  0  0  0
    0.7500   -6.4952    0.0000 C   0  0  0  0  0  0  0  0  0  0  0  0
    1.5000   -7.7942    0.0000 C   0  0  0  0  0  0  0  0  0  0  0  0
    1.5000  -10.3923    0.0000 C   0  0  0  0  0  0  0  0  0  0  0  0
    0.7500  -11.6913    0.0000 C   0  0  0  0  0  0  0  0  0  0  0  0
  1  2  2  0
  2  3  1  0
  3  4  1  0
  4  5  2  0
  5  6  1  0
  6  7  2  0
  7  8  1  0
  8  9  2  0
  9 10  1  0
 10 11  1  0
 11 12  1  0
 12 13  1  0
 13 14  1  0
 14 15  1  0
 15 16  1  0
 16 17  2  0
 17 18  1  0
 18 19  2  0
 19 20  1  0
 20 21  2  0
 21 22  1  0
 22 23  2  0
 23 24  1  0
 24 25  2  0
 25 26  1  0
 26 27  1  0
 27 28  2  0
 28 29  1  0
 29 30  1  0
 25 31  1  0
 31 32  2  0
 32 33  1  0
 33 34  2  0
 34 35  1  0
 35 36  2  0
 36 37  1  0
 37 38  2  0
 38 39  1  0
 39 40  2  0
 19 41  1  0
 41 42  2  0
 14 43  1  0
 43 44  1  0
 10  2  1  0
 44 11  1  0
  9  4  1  0
 42 16  1  0
 34 20  1  0
 40 35  1  0
 32 22  1  0
 30 26  2  0
M  END
>  <Compound_ID>  (48) 
CHEMBL271091

>  <Active>  (48) 
1

>  <Smiles>  (48) 
O=c1[nH]c2ccccc2n1C1CCN(Cc2ccc(-c3nc4ccc(-c5nn[nH]n5)cc4nc3-c3ccccc3)cc2)CC1

>  <canonical_smi>  (48) 
O=c1[nH]c2ccccc2n1C1CCN(Cc2ccc(-c3nc4ccc(-c5nn[nH]n5)cc4nc3-c3ccccc3)cc2)CC1

>  <Set>  (48) 
G2 active

>  <Set_type>  (48) 
Test

>  <MW>  (48) 
579.67

>  <HBD>  (48) 
2

>  <HBA>  (48) 
7

>  <NRB>  (48) 
6

>  <NR>  (48) 
8

>  <NAR>  (48) 
7

>  <PSA>  (48) 
121.27

>  <Standard Type>  (48) 
nan

>  <Standard Relation>  (48) 
nan

>  <Standard Units>  (48) 
nan

>  <Standard Value>  (48) 
nan

>  <Assay ChEMBL ID>  (48) 
nan

>  <Assay Description>  (48) 
nan

>  <BAO Label>  (48) 
nan

>  <bits>  (48) 
<rdkit.DataStructs.cDataStructs.ExplicitBitVect object at 0x000001A32306F840>

>  <Group>  (48) 
G2

$$$$

     RDKit          2D

 40 46  0  0  0  0  0  0  0  0999 V2000
    3.0000   -7.7942    0.0000 C   0  0  0  0  0  0  0  0  0  0  0  0
    1.5000   -7.7942    0.0000 C   0  0  0  0  0  0  0  0  0  0  0  0
    0.7500   -6.4952    0.0000 C   0  0  0  0  0  0  0  0  0  0  0  0
    1.5000   -5.1962    0.0000 C   0  0  0  0  0  0  0  0  0  0  0  0
    0.7500   -3.8971    0.0000 C   0  0  0  0  0  0  0  0  0  0  0  0
    1.5000   -2.5981    0.0000 C   0  0  0  0  0  0  0  0  0  0  0  0
    0.7500   -1.2990    0.0000 C   0  0  0  0  0  0  0  0  0  0  0  0
    1.5000    0.0000    0.0000 C   0  0  0  0  0  0  0  0  0  0  0  0
    0.7500    1.2990    0.0000 C   0  0  0  0  0  0  0  0  0  0  0  0
   -0.7500    1.2990    0.0000 N   0  0  0  0  0  0  0  0  0  0  0  0
   -1.5000    0.0000    0.0000 C   0  0  0  0  0  0  0  0  0  0  0  0
   -0.7500   -1.2990    0.0000 C   0  0  0  0  0  0  0  0  0  0  0  0
   -1.5000   -2.5981    0.0000 N   0  0  0  0  0  0  0  0  0  0  0  0
   -0.7500   -3.8971    0.0000 C   0  0  0  0  0  0  0  0  0  0  0  0
   -1.5000   -5.1962    0.0000 C   0  0  0  0  0  0  0  0  0  0  0  0
   -3.0000   -5.1962    0.0000 C   0  0  0  0  0  0  0  0  0  0  0  0
   -3.7500   -6.4952    0.0000 C   0  0  0  0  0  0  0  0  0  0  0  0
   -3.0000   -7.7942    0.0000 C   0  0  0  0  0  0  0  0  0  0  0  0
   -3.7500   -9.0933    0.0000 C   0  0  0  0  0  0  0  0  0  0  0  0
   -5.2500   -9.0933    0.0000 N   0  0  0  0  0  0  0  0  0  0  0  0
   -6.0000   -7.7942    0.0000 C   0  0  0  0  0  0  0  0  0  0  0  0
   -7.5000   -7.7942    0.0000 C   0  0  0  0  0  0  0  0  0  0  0  0
   -8.2500   -9.0933    0.0000 C   0  0  0  0  0  0  0  0  0  0  0  0
   -9.7500   -9.0933    0.0000 C   0  0  0  0  0  0  0  0  0  0  0  0
  -10.6317  -10.3068    0.0000 N   0  0  0  0  0  0  0  0  0  0  0  0
  -12.0583   -9.8433    0.0000 N   0  0  0  0  0  0  0  0  0  0  0  0
  -12.0583   -8.3433    0.0000 C   0  0  0  0  0  0  0  0  0  0  0  0
  -13.2718   -7.4616    0.0000 C   0  0  0  0  0  0  0  0  0  0  0  0
  -13.1150   -5.9698    0.0000 C   0  0  0  0  0  0  0  0  0  0  0  0
  -14.3285   -5.0881    0.0000 C   0  0  0  0  0  0  0  0  0  0  0  0
  -15.6988   -5.6982    0.0000 C   0  0  0  0  0  0  0  0  0  0  0  0
  -15.8556   -7.1900    0.0000 C   0  0  0  0  0  0  0  0  0  0  0  0
  -14.6421   -8.0717    0.0000 N   0  0  0  0  0  0  0  0  0  0  0  0
  -10.6317   -7.8797    0.0000 N   0  0  0  0  0  0  0  0  0  0  0  0
   -7.5000  -10.3923    0.0000 C   0  0  0  0  0  0  0  0  0  0  0  0
   -6.0000  -10.3923    0.0000 C   0  0  0  0  0  0  0  0  0  0  0  0
   -1.5000   -7.7942    0.0000 C   0  0  0  0  0  0  0  0  0  0  0  0
   -0.7500   -6.4952    0.0000 C   0  0  0  0  0  0  0  0  0  0  0  0
    3.0000   -5.1962    0.0000 C   0  0  0  0  0  0  0  0  0  0  0  0
    3.7500   -6.4952    0.0000 C   0  0  0  0  0  0  0  0  0  0  0  0
  1  2  2  0
  2  3  1  0
  3  4  2  0
  4  5  1  0
  5  6  2  0
  6  7  1  0
  7  8  2  0
  8  9  1  0
  9 10  2  0
 10 11  1  0
 11 12  2  0
 12 13  1  0
 13 14  2  0
 14 15  1  0
 15 16  2  0
 16 17  1  0
 17 18  2  0
 18 19  1  0
 19 20  1  0
 20 21  1  0
 21 22  1  0
 22 23  1  0
 23 24  1  0
 24 25  2  0
 25 26  1  0
 26 27  1  0
 27 28  1  0
 28 29  2  0
 29 30  1  0
 30 31  2  0
 31 32  1  0
 32 33  2  0
 27 34  2  0
 23 35  1  0
 35 36  1  0
 18 37  1  0
 37 38  2  0
  4 39  1  0
 39 40  2  0
 40  1  1  0
 14  5  1  0
 38 15  1  0
 12  7  1  0
 36 20  1  0
 34 24  1  0
 33 28  1  0
M  END
>  <Compound_ID>  (49) 
CHEMBL259968

>  <Active>  (49) 
1

>  <Smiles>  (49) 
c1ccc(-c2cc3ccncc3nc2-c2ccc(CN3CCC(c4n[nH]c(-c5ccccn5)n4)CC3)cc2)cc1

>  <canonical_smi>  (49) 
c1ccc(-c2cc3ccncc3nc2-c2ccc(CN3CCC(c4n[nH]c(-c5ccccn5)n4)CC3)cc2)cc1

>  <Set>  (49) 
G2 active

>  <Set_type>  (49) 
Test

>  <MW>  (49) 
523.64

>  <HBD>  (49) 
1

>  <HBA>  (49) 
6

>  <NRB>  (49) 
6

>  <NR>  (49) 
7

>  <NAR>  (49) 
6

>  <PSA>  (49) 
83.48

>  <Standard Type>  (49) 
nan

>  <Standard Relation>  (49) 
nan

>  <Standard Units>  (49) 
nan

>  <Standard Value>  (49) 
nan

>  <Assay ChEMBL ID>  (49) 
nan

>  <Assay Description>  (49) 
nan

>  <BAO Label>  (49) 
nan

>  <bits>  (49) 
<rdkit.DataStructs.cDataStructs.ExplicitBitVect object at 0x000001A32306F920>

>  <Group>  (49) 
G2

$$$$

     RDKit          2D

 40 46  0  0  0  0  0  0  0  0999 V2000
    3.0000   -7.7942    0.0000 C   0  0  0  0  0  0  0  0  0  0  0  0
    1.5000   -7.7942    0.0000 C   0  0  0  0  0  0  0  0  0  0  0  0
    0.7500   -6.4952    0.0000 C   0  0  0  0  0  0  0  0  0  0  0  0
    1.5000   -5.1962    0.0000 C   0  0  0  0  0  0  0  0  0  0  0  0
    0.7500   -3.8971    0.0000 C   0  0  0  0  0  0  0  0  0  0  0  0
    1.5000   -2.5981    0.0000 C   0  0  0  0  0  0  0  0  0  0  0  0
    0.7500   -1.2990    0.0000 C   0  0  0  0  0  0  0  0  0  0  0  0
    1.5000    0.0000    0.0000 C   0  0  0  0  0  0  0  0  0  0  0  0
    0.7500    1.2990    0.0000 C   0  0  0  0  0  0  0  0  0  0  0  0
   -0.7500    1.2990    0.0000 C   0  0  0  0  0  0  0  0  0  0  0  0
   -1.5000    0.0000    0.0000 N   0  0  0  0  0  0  0  0  0  0  0  0
   -0.7500   -1.2990    0.0000 C   0  0  0  0  0  0  0  0  0  0  0  0
   -1.5000   -2.5981    0.0000 N   0  0  0  0  0  0  0  0  0  0  0  0
   -0.7500   -3.8971    0.0000 C   0  0  0  0  0  0  0  0  0  0  0  0
   -1.5000   -5.1962    0.0000 C   0  0  0  0  0  0  0  0  0  0  0  0
   -3.0000   -5.1962    0.0000 C   0  0  0  0  0  0  0  0  0  0  0  0
   -3.7500   -6.4952    0.0000 C   0  0  0  0  0  0  0  0  0  0  0  0
   -3.0000   -7.7942    0.0000 C   0  0  0  0  0  0  0  0  0  0  0  0
   -3.7500   -9.0933    0.0000 C   0  0  0  0  0  0  0  0  0  0  0  0
   -5.2500   -9.0933    0.0000 N   0  0  0  0  0  0  0  0  0  0  0  0
   -6.0000   -7.7942    0.0000 C   0  0  0  0  0  0  0  0  0  0  0  0
   -7.5000   -7.7942    0.0000 C   0  0  0  0  0  0  0  0  0  0  0  0
   -8.2500   -9.0933    0.0000 C   0  0  0  0  0  0  0  0  0  0  0  0
   -9.7500   -9.0933    0.0000 C   0  0  0  0  0  0  0  0  0  0  0  0
  -10.6317  -10.3068    0.0000 C   0  0  0  0  0  0  0  0  0  0  0  0
  -12.0583   -9.8433    0.0000 C   0  0  0  0  0  0  0  0  0  0  0  0
  -13.2718  -10.7249    0.0000 C   0  0  0  0  0  0  0  0  0  0  0  0
  -14.6421  -10.1148    0.0000 C   0  0  0  0  0  0  0  0  0  0  0  0
  -15.8556  -10.9965    0.0000 C   0  0  0  0  0  0  0  0  0  0  0  0
  -15.6988  -12.4883    0.0000 N   0  0  0  0  0  0  0  0  0  0  0  0
  -14.3285  -13.0984    0.0000 C   0  0  0  0  0  0  0  0  0  0  0  0
  -13.1150  -12.2167    0.0000 C   0  0  0  0  0  0  0  0  0  0  0  0
  -12.0583   -8.3433    0.0000 N   0  0  0  0  0  0  0  0  0  0  0  0
  -10.6317   -7.8797    0.0000 N   0  0  0  0  0  0  0  0  0  0  0  0
   -7.5000  -10.3923    0.0000 C   0  0  0  0  0  0  0  0  0  0  0  0
   -6.0000  -10.3923    0.0000 C   0  0  0  0  0  0  0  0  0  0  0  0
   -1.5000   -7.7942    0.0000 C   0  0  0  0  0  0  0  0  0  0  0  0
   -0.7500   -6.4952    0.0000 C   0  0  0  0  0  0  0  0  0  0  0  0
    3.0000   -5.1962    0.0000 C   0  0  0  0  0  0  0  0  0  0  0  0
    3.7500   -6.4952    0.0000 C   0  0  0  0  0  0  0  0  0  0  0  0
  1  2  2  0
  2  3  1  0
  3  4  2  0
  4  5  1  0
  5  6  2  0
  6  7  1  0
  7  8  2  0
  8  9  1  0
  9 10  2  0
 10 11  1  0
 11 12  2  0
 12 13  1  0
 13 14  2  0
 14 15  1  0
 15 16  2  0
 16 17  1  0
 17 18  2  0
 18 19  1  0
 19 20  1  0
 20 21  1  0
 21 22  1  0
 22 23  1  0
 23 24  1  0
 24 25  1  0
 25 26  2  0
 26 27  1  0
 27 28  2  0
 28 29  1  0
 29 30  2  0
 30 31  1  0
 31 32  2  0
 26 33  1  0
 33 34  1  0
 23 35  1  0
 35 36  1  0
 18 37  1  0
 37 38  2  0
  4 39  1  0
 39 40  2  0
 40  1  1  0
 14  5  1  0
 38 15  1  0
 12  7  1  0
 36 20  1  0
 34 24  2  0
 32 27  1  0
M  END
>  <Compound_ID>  (50) 
CHEMBL261540

>  <Active>  (50) 
1

>  <Smiles>  (50) 
c1ccc(-c2cc3cccnc3nc2-c2ccc(CN3CCC(c4cc(-c5ccncc5)[nH]n4)CC3)cc2)cc1

>  <canonical_smi>  (50) 
c1ccc(-c2cc3cccnc3nc2-c2ccc(CN3CCC(c4cc(-c5ccncc5)[nH]n4)CC3)cc2)cc1

>  <Set>  (50) 
G2 active

>  <Set_type>  (50) 
Test

>  <MW>  (50) 
522.66

>  <HBD>  (50) 
1

>  <HBA>  (50) 
5

>  <NRB>  (50) 
6

>  <NR>  (50) 
7

>  <NAR>  (50) 
6

>  <PSA>  (50) 
70.59

>  <Standard Type>  (50) 
nan

>  <Standard Relation>  (50) 
nan

>  <Standard Units>  (50) 
nan

>  <Standard Value>  (50) 
nan

>  <Assay ChEMBL ID>  (50) 
nan

>  <Assay Description>  (50) 
nan

>  <BAO Label>  (50) 
nan

>  <bits>  (50) 
<rdkit.DataStructs.cDataStructs.ExplicitBitVect object at 0x000001A32306F990>

>  <Group>  (50) 
G2

$$$$

     RDKit          2D

 17 19  0  0  0  0  0  0  0  0999 V2000
   -4.3888    0.2979    0.0000 C   0  0  0  0  0  0  0  0  0  0  0  0
   -3.6388    1.5969    0.0000 C   0  0  0  0  0  0  0  0  0  0  0  0
   -2.1470    1.7537    0.0000 C   0  0  0  0  0  0  0  0  0  0  0  0
   -2.6105    0.3271    0.0000 O   0  0  0  0  0  0  0  0  0  0  0  0
   -1.8351    3.2209    0.0000 C   0  0  0  0  0  0  0  0  0  0  0  0
   -3.1342    3.9709    0.0000 N   0  0  0  0  0  4  0  0  0  0  0  0
   -3.2910    5.4627    0.0000 O   0  0  0  0  0  1  0  0  0  0  0  0
   -4.2489    2.9672    0.0000 C   0  0  0  0  0  0  0  0  0  0  0  0
   -5.5479    2.2172    0.0000 C   0  0  0  0  0  0  0  0  0  0  0  0
   -5.1306    4.1807    0.0000 N   0  0  0  0  0  4  0  0  0  0  0  0
   -0.4086    3.6844    0.0000 C   0  0  0  0  0  0  0  0  0  0  0  0
    0.7062    2.6807    0.0000 C   0  0  0  0  0  0  0  0  0  0  0  0
    0.3943    1.2135    0.0000 C   0  0  0  0  0  0  0  0  0  0  0  0
    1.2760    0.0000    0.0000 N   0  0  0  0  0  0  0  0  0  0  0  0
    0.3943   -1.2135    0.0000 O   0  0  0  0  0  0  0  0  0  0  0  0
   -1.0323   -0.7500    0.0000 N   0  0  0  0  0  0  0  0  0  0  0  0
   -1.0323    0.7500    0.0000 C   0  0  0  0  0  0  0  0  0  0  0  0
  2  1  1  1
  2  3  1  0
  3  4  1  6
  3  5  1  0
  5  6  2  0
  6  7  1  0
  6  8  1  0
  8  9  1  1
  8 10  1  0
  5 11  1  0
 11 12  1  0
 12 13  1  0
 13 14  2  0
 14 15  1  0
 15 16  1  0
 16 17  2  0
  8  2  1  0
 17 13  1  0
 17  3  1  0
M  CHG  3   6   1   7  -1  10   1
M  END
>  <Compound_ID>  (51) 
C19321647

>  <Active>  (51) 
0

>  <Smiles>  (51) 
C[C@@H]1[C@@]2(O)C(=[N+]([O-])[C@@]1(C)[NH3+])CCc1nonc12

>  <canonical_smi>  (51) 
C[C@@H]1[C@@]2(O)C(=[N+]([O-])[C@@]1(C)[NH3+])CCc1nonc12

>  <Set>  (51) 
G2 inactive

>  <Set_type>  (51) 
Train

>  <MW>  (51) 
239.25

>  <HBD>  (51) 
2

>  <HBA>  (51) 
5

>  <NRB>  (51) 
0

>  <NR>  (51) 
3

>  <NAR>  (51) 
1

>  <PSA>  (51) 
112.86

>  <Standard Type>  (51) 
nan

>  <Standard Relation>  (51) 
nan

>  <Standard Units>  (51) 
nan

>  <Standard Value>  (51) 
nan

>  <Assay ChEMBL ID>  (51) 
nan

>  <Assay Description>  (51) 
nan

>  <BAO Label>  (51) 
nan

>  <bits>  (51) 
<rdkit.DataStructs.cDataStructs.ExplicitBitVect object at 0x000001A3230930D0>

>  <Group>  (51) 
G2

$$$$

     RDKit          2D

 14 15  0  0  0  0  0  0  0  0999 V2000
    3.5260   -1.2990    0.0000 N   0  0  0  0  0  4  0  0  0  0  0  0
    2.7760    0.0000    0.0000 C   0  0  0  0  0  0  0  0  0  0  0  0
    1.2760    0.0000    0.0000 C   0  0  0  0  0  0  0  0  0  0  0  0
    0.3943    1.2135    0.0000 C   0  0  0  0  0  0  0  0  0  0  0  0
   -1.0323    0.7500    0.0000 N   0  0  0  0  0  0  0  0  0  0  0  0
   -2.2458    1.6317    0.0000 C   0  0  0  0  0  0  0  0  0  0  0  0
   -2.0890    3.1235    0.0000 C   0  0  0  0  0  0  0  0  0  0  0  0
   -3.2037    4.1272    0.0000 C   0  0  0  0  0  0  0  0  0  0  0  0
   -2.5936    5.4975    0.0000 N   0  0  0  0  0  0  0  0  0  0  0  0
   -1.1018    5.3407    0.0000 C   0  0  0  0  0  0  0  0  0  0  0  0
   -0.0982    6.4554    0.0000 O   0  0  0  0  0  0  0  0  0  0  0  0
   -0.7900    3.8735    0.0000 O   0  0  0  0  0  0  0  0  0  0  0  0
   -1.0323   -0.7500    0.0000 N   0  0  0  0  0  0  0  0  0  0  0  0
    0.3943   -1.2135    0.0000 N   0  0  0  0  0  0  0  0  0  0  0  0
  1  2  1  0
  2  3  1  0
  3  4  2  0
  4  5  1  0
  5  6  1  0
  7  6  1  6
  7  8  1  0
  8  9  1  0
  9 10  1  0
 10 11  2  0
 10 12  1  0
  5 13  1  0
 13 14  2  0
 14  3  1  0
 12  7  1  0
M  CHG  1   1   1
M  END
>  <Compound_ID>  (52) 
C50224613

>  <Active>  (52) 
0

>  <Smiles>  (52) 
[NH3+]Cc1cn(C[C@@H]2CNC(=O)O2)nn1

>  <canonical_smi>  (52) 
[NH3+]Cc1cn(C[C@@H]2CNC(=O)O2)nn1

>  <Set>  (52) 
G2 inactive

>  <Set_type>  (52) 
Train

>  <MW>  (52) 
198.21

>  <HBD>  (52) 
2

>  <HBA>  (52) 
4

>  <NRB>  (52) 
3

>  <NR>  (52) 
2

>  <NAR>  (52) 
1

>  <PSA>  (52) 
96.68

>  <Standard Type>  (52) 
nan

>  <Standard Relation>  (52) 
nan

>  <Standard Units>  (52) 
nan

>  <Standard Value>  (52) 
nan

>  <Assay ChEMBL ID>  (52) 
nan

>  <Assay Description>  (52) 
nan

>  <BAO Label>  (52) 
nan

>  <bits>  (52) 
<rdkit.DataStructs.cDataStructs.ExplicitBitVect object at 0x000001A323092490>

>  <Group>  (52) 
G2

$$$$

     RDKit          2D

 17 17  0  0  0  0  0  0  0  0999 V2000
    3.0000    0.0000    0.0000 C   0  0  0  0  0  0  0  0  0  0  0  0
    1.5000    0.0000    0.0000 C   0  0  0  0  0  0  0  0  0  0  0  0
    0.7500   -1.2990    0.0000 C   0  0  0  0  0  0  0  0  0  0  0  0
    1.5000   -2.5981    0.0000 Br  0  0  0  0  0  0  0  0  0  0  0  0
   -0.7500   -1.2990    0.0000 C   0  0  0  0  0  0  0  0  0  0  0  0
   -1.5000   -2.5981    0.0000 O   0  0  0  0  0  0  0  0  0  0  0  0
   -1.5000    0.0000    0.0000 C   0  0  0  0  0  0  0  0  0  0  0  0
   -3.0000    0.0000    0.0000 C   0  0  0  0  0  0  0  0  0  0  0  0
   -3.7500   -1.2990    0.0000 C   0  0  0  0  0  0  0  0  0  0  0  0
   -5.2500   -1.2990    0.0000 C   0  0  0  0  0  0  0  0  0  0  0  0
   -6.0000   -2.5981    0.0000 N   0  0  0  0  0  4  0  0  0  0  0  0
   -0.7500    1.2990    0.0000 C   0  0  0  0  0  0  0  0  0  0  0  0
   -1.5000    2.5981    0.0000 C   0  0  0  0  0  0  0  0  0  0  0  0
    0.7500    1.2990    0.0000 C   0  0  0  0  0  0  0  0  0  0  0  0
    1.5000    2.5981    0.0000 N   0  0  0  0  0  4  0  0  0  0  0  0
    0.7500    3.8971    0.0000 O   0  0  0  0  0  0  0  0  0  0  0  0
    3.0000    2.5981    0.0000 O   0  0  0  0  0  1  0  0  0  0  0  0
  1  2  1  0
  2  3  2  0
  3  4  1  0
  3  5  1  0
  5  6  1  0
  5  7  2  0
  7  8  1  0
  8  9  1  0
  9 10  1  0
 10 11  1  0
  7 12  1  0
 12 13  1  0
 12 14  2  0
 14 15  1  0
 15 16  2  0
 15 17  1  0
 14  2  1  0
M  CHG  3  11   1  15   1  17  -1
M  END
>  <Compound_ID>  (53) 
C44282538

>  <Active>  (53) 
0

>  <Smiles>  (53) 
Cc1c(Br)c(O)c(CCC[NH3+])c(C)c1[N+](=O)[O-]

>  <canonical_smi>  (53) 
Cc1c(Br)c(O)c(CCC[NH3+])c(C)c1[N+](=O)[O-]

>  <Set>  (53) 
G2 inactive

>  <Set_type>  (53) 
Train

>  <MW>  (53) 
304.16

>  <HBD>  (53) 
2

>  <HBA>  (53) 
3

>  <NRB>  (53) 
4

>  <NR>  (53) 
1

>  <NAR>  (53) 
1

>  <PSA>  (53) 
91.01

>  <Standard Type>  (53) 
nan

>  <Standard Relation>  (53) 
nan

>  <Standard Units>  (53) 
nan

>  <Standard Value>  (53) 
nan

>  <Assay ChEMBL ID>  (53) 
nan

>  <Assay Description>  (53) 
nan

>  <BAO Label>  (53) 
nan

>  <bits>  (53) 
<rdkit.DataStructs.cDataStructs.ExplicitBitVect object at 0x000001A3230920A0>

>  <Group>  (53) 
G2

$$$$

     RDKit          2D

 39 42  0  0  0  0  0  0  0  0999 V2000
  -11.9359   -5.9163    0.0000 C   0  0  0  0  0  0  0  0  0  0  0  0
  -10.5263   -5.4033    0.0000 C   0  0  0  0  0  0  0  0  0  0  0  0
   -9.3772   -6.3675    0.0000 N   0  0  0  0  0  0  0  0  0  0  0  0
   -9.6377   -7.8447    0.0000 C   0  0  0  0  0  0  0  0  0  0  0  0
  -11.0473   -8.3577    0.0000 C   0  0  0  0  0  0  0  0  0  0  0  0
   -7.9677   -5.8544    0.0000 C   0  0  0  0  0  0  0  0  0  0  0  0
   -7.7072   -4.3772    0.0000 C   0  0  0  0  0  0  0  0  0  0  0  0
   -6.2977   -3.8642    0.0000 C   0  0  0  0  0  0  0  0  0  0  0  0
   -5.1486   -4.8284    0.0000 C   0  0  0  0  0  0  0  0  0  0  0  0
   -3.7391   -4.3153    0.0000 N   0  0  0  0  0  0  0  0  0  0  0  0
   -2.5900   -5.2795    0.0000 C   0  0  0  0  0  0  0  0  0  0  0  0
   -1.1805   -4.7665    0.0000 C   0  0  0  0  0  0  0  0  0  0  0  0
   -0.9200   -3.2893    0.0000 N   0  0  0  0  0  0  0  0  0  0  0  0
    0.4895   -2.7762    0.0000 C   0  0  0  0  0  0  0  0  0  0  0  0
    1.6386   -3.7404    0.0000 O   0  0  0  0  0  0  0  0  0  0  0  0
    0.7500   -1.2990    0.0000 C   0  0  0  0  0  0  0  0  0  0  0  0
    2.1595   -1.8121    0.0000 C   0  0  0  0  0  0  0  0  0  0  0  0
    1.5000    0.0000    0.0000 C   0  0  0  0  0  0  0  0  0  0  0  0
    0.7500    1.2990    0.0000 C   0  0  0  0  0  0  0  0  0  0  0  0
   -0.7500    1.2990    0.0000 C   0  0  0  0  0  0  0  0  0  0  0  0
   -1.5000    2.5981    0.0000 C   0  0  0  0  0  0  0  0  0  0  0  0
   -0.7500    3.8971    0.0000 C   0  0  0  0  0  0  0  0  0  0  0  0
   -3.0000    2.5981    0.0000 C   0  0  0  0  0  0  0  0  0  0  0  0
   -3.7500    3.8971    0.0000 O   0  0  0  0  0  0  0  0  0  0  0  0
   -3.7500    1.2990    0.0000 C   0  0  0  0  0  0  0  0  0  0  0  0
   -5.2500    1.2990    0.0000 C   0  0  0  0  0  0  0  0  0  0  0  0
   -3.0000    0.0000    0.0000 C   0  0  0  0  0  0  0  0  0  0  0  0
   -3.7500   -1.2990    0.0000 C   0  0  0  0  0  0  0  0  0  0  0  0
   -1.5000    0.0000    0.0000 C   0  0  0  0  0  0  0  0  0  0  0  0
   -0.7500   -1.2990    0.0000 O   0  0  0  0  0  0  0  0  0  0  0  0
   -2.0691   -2.3251    0.0000 C   0  0  0  0  0  0  0  0  0  0  0  0
   -3.4786   -2.8381    0.0000 C   0  0  0  0  0  0  0  0  0  0  0  0
   -5.4091   -6.3056    0.0000 N   0  0  0  0  0  4  0  0  0  0  0  0
   -6.8186   -6.8186    0.0000 C   0  0  0  0  0  0  0  0  0  0  0  0
   -7.0791   -8.2958    0.0000 N   0  0  0  0  0  0  0  0  0  0  0  0
   -5.9300   -9.2600    0.0000 C   0  0  0  0  0  0  0  0  0  0  0  0
   -6.1905  -10.7372    0.0000 C   0  0  0  0  0  0  0  0  0  0  0  0
   -8.4887   -8.8089    0.0000 C   0  0  0  0  0  0  0  0  0  0  0  0
   -8.7491  -10.2861    0.0000 C   0  0  0  0  0  0  0  0  0  0  0  0
  1  2  1  0
  2  3  1  0
  3  4  1  0
  4  5  1  0
  3  6  1  0
  6  7  2  0
  7  8  1  0
  8  9  2  0
  9 10  1  0
 10 11  1  0
 11 12  1  0
 12 13  1  0
 13 14  1  0
 14 15  2  0
 14 16  1  0
 16 17  1  6
 16 18  1  0
 18 19  1  0
 19 20  1  0
 20 21  2  0
 21 22  1  0
 21 23  1  0
 23 24  1  0
 23 25  2  0
 25 26  1  0
 25 27  1  0
 27 28  1  0
 27 29  2  0
 29 30  1  0
 13 31  1  0
 31 32  1  0
  9 33  1  0
 33 34  2  0
 34 35  1  0
 35 36  1  0
 36 37  1  0
 35 38  1  0
 38 39  1  0
 34  6  1  0
 32 10  1  0
 30 16  1  0
 29 20  1  0
M  CHG  1  33   1
M  END
>  <Compound_ID>  (54) 
C13651282

>  <Active>  (54) 
0

>  <Smiles>  (54) 
CCN(CC)c1ccc(N2CCN(C(=O)[C@]3(C)CCc4c(C)c(O)c(C)c(C)c4O3)CC2)[nH+]c1N(CC)CC

>  <canonical_smi>  (54) 
CCN(CC)c1ccc(N2CCN(C(=O)[C@]3(C)CCc4c(C)c(O)c(C)c(C)c4O3)CC2)[nH+]c1N(CC)CC

>  <Set>  (54) 
G2 inactive

>  <Set_type>  (54) 
Train

>  <MW>  (54) 
538.76

>  <HBD>  (54) 
1

>  <HBA>  (54) 
6

>  <NRB>  (54) 
8

>  <NR>  (54) 
4

>  <NAR>  (54) 
2

>  <PSA>  (54) 
73.63

>  <Standard Type>  (54) 
nan

>  <Standard Relation>  (54) 
nan

>  <Standard Units>  (54) 
nan

>  <Standard Value>  (54) 
nan

>  <Assay ChEMBL ID>  (54) 
nan

>  <Assay Description>  (54) 
nan

>  <BAO Label>  (54) 
nan

>  <bits>  (54) 
<rdkit.DataStructs.cDataStructs.ExplicitBitVect object at 0x000001A323092570>

>  <Group>  (54) 
G2

$$$$

     RDKit          2D

 36 40  0  0  0  0  0  0  0  0999 V2000
   -0.5490   -3.1471    0.0000 O   0  0  0  0  0  0  0  0  0  0  0  0
    0.7500   -3.8971    0.0000 S   0  0  0  0  0  0  0  0  0  0  0  0
    2.0490   -4.6471    0.0000 O   0  0  0  0  0  0  0  0  0  0  0  0
    1.5000   -2.5981    0.0000 O   0  0  0  0  0  0  0  0  0  0  0  0
    0.7500   -1.2990    0.0000 C   0  0  0  0  0  0  0  0  0  0  0  0
    1.5000    0.0000    0.0000 C   0  0  0  0  0  0  0  0  0  0  0  0
    0.7500    1.2990    0.0000 C   0  0  0  0  0  0  0  0  0  0  0  0
   -0.7500    1.2990    0.0000 C   0  0  0  0  0  0  0  0  0  0  0  0
   -1.5000    0.0000    0.0000 C   0  0  0  0  0  0  0  0  0  0  0  0
   -0.7500   -1.2990    0.0000 C   0  0  0  0  0  0  0  0  0  0  0  0
   -0.0000   -5.1962    0.0000 C   0  0  0  0  0  0  0  0  0  0  0  0
   -1.5000   -5.1962    0.0000 C   0  0  0  0  0  0  0  0  0  0  0  0
   -2.2500   -6.4952    0.0000 N   0  0  0  0  0  0  0  0  0  0  0  0
   -3.7500   -6.4952    0.0000 C   0  0  0  0  0  0  0  0  0  0  0  0
   -4.5000   -5.1962    0.0000 C   0  0  0  0  0  0  0  0  0  0  0  0
   -6.0000   -5.1962    0.0000 C   0  0  0  0  0  0  0  0  0  0  0  0
   -6.7500   -6.4952    0.0000 C   0  0  0  0  0  0  0  0  0  0  0  0
   -8.2500   -6.4952    0.0000 C   0  0  0  0  0  0  0  0  0  0  0  0
   -9.0000   -5.1962    0.0000 C   0  0  0  0  0  0  0  0  0  0  0  0
   -8.2500   -3.8971    0.0000 C   0  0  0  0  0  0  0  0  0  0  0  0
   -9.0000   -2.5981    0.0000 C   0  0  0  0  0  0  0  0  0  0  0  0
  -10.5000   -2.5981    0.0000 C   0  0  0  0  0  0  0  0  0  0  0  0
  -11.2500   -3.8971    0.0000 C   0  0  0  0  0  0  0  0  0  0  0  0
  -10.5000   -5.1962    0.0000 C   0  0  0  0  0  0  0  0  0  0  0  0
   -6.0000   -7.7942    0.0000 C   0  0  0  0  0  0  0  0  0  0  0  0
   -4.5000   -7.7942    0.0000 C   0  0  0  0  0  0  0  0  0  0  0  0
   -3.7500   -9.0933    0.0000 C   0  0  0  0  0  0  0  0  0  0  0  0
   -4.5000  -10.3923    0.0000 C   0  0  0  0  0  0  0  0  0  0  0  0
   -6.0000  -10.3923    0.0000 C   0  0  0  0  0  0  0  0  0  0  0  0
   -6.7500  -11.6913    0.0000 C   0  0  0  0  0  0  0  0  0  0  0  0
   -6.0000  -12.9904    0.0000 C   0  0  0  0  0  0  0  0  0  0  0  0
   -4.5000  -12.9904    0.0000 C   0  0  0  0  0  0  0  0  0  0  0  0
   -3.7500  -11.6913    0.0000 C   0  0  0  0  0  0  0  0  0  0  0  0
   -1.5000   -7.7942    0.0000 C   0  0  0  0  0  0  0  0  0  0  0  0
   -0.0000   -7.7942    0.0000 C   0  0  0  0  0  0  0  0  0  0  0  0
    0.7500   -6.4952    0.0000 N   0  0  0  0  0  4  0  0  0  0  0  0
  1  2  2  0
  2  3  2  0
  2  4  1  0
  4  5  1  0
  5  6  2  0
  6  7  1  0
  7  8  2  0
  8  9  1  0
  9 10  2  0
 11  2  1  6
 11 12  1  0
 12 13  1  0
 13 14  1  0
 14 15  2  0
 15 16  1  0
 16 17  2  0
 17 18  1  0
 18 19  1  0
 19 20  2  0
 20 21  1  0
 21 22  2  0
 22 23  1  0
 23 24  2  0
 17 25  1  0
 25 26  2  0
 26 27  1  0
 27 28  1  0
 28 29  2  0
 29 30  1  0
 30 31  2  0
 31 32  1  0
 32 33  2  0
 13 34  1  0
 34 35  1  0
 35 36  1  0
 10  5  1  0
 36 11  1  0
 26 14  1  0
 33 28  1  0
 24 19  1  0
M  CHG  1  36   1
M  END
>  <Compound_ID>  (55) 
C39528088

>  <Active>  (55) 
0

>  <Smiles>  (55) 
O=S(=O)(Oc1ccccc1)[C@H]1CN(c2ccc(Cc3ccccc3)cc2Cc2ccccc2)CC[NH2+]1

>  <canonical_smi>  (55) 
O=S(=O)(Oc1ccccc1)[C@H]1CN(c2ccc(Cc3ccccc3)cc2Cc2ccccc2)CC[NH2+]1

>  <Set>  (55) 
G2 inactive

>  <Set_type>  (55) 
Train

>  <MW>  (55) 
499.66

>  <HBD>  (55) 
1

>  <HBA>  (55) 
4

>  <NRB>  (55) 
8

>  <NR>  (55) 
5

>  <NAR>  (55) 
4

>  <PSA>  (55) 
63.22

>  <Standard Type>  (55) 
nan

>  <Standard Relation>  (55) 
nan

>  <Standard Units>  (55) 
nan

>  <Standard Value>  (55) 
nan

>  <Assay ChEMBL ID>  (55) 
nan

>  <Assay Description>  (55) 
nan

>  <BAO Label>  (55) 
nan

>  <bits>  (55) 
<rdkit.DataStructs.cDataStructs.ExplicitBitVect object at 0x000001A323090B30>

>  <Group>  (55) 
G2

$$$$

     RDKit          2D

 34 38  0  0  0  0  0  0  0  0999 V2000
   -2.9046  -11.4354    0.0000 C   0  0  0  0  0  0  0  0  0  0  0  0
   -3.0613   -9.9436    0.0000 N   0  0  0  0  0  0  0  0  0  0  0  0
   -1.8478   -9.0619    0.0000 C   0  0  0  0  0  0  0  0  0  0  0  0
   -0.4775   -9.6721    0.0000 S   0  0  0  0  0  0  0  0  0  0  0  0
   -2.0046   -7.5702    0.0000 N   0  0  0  0  0  0  0  0  0  0  0  0
   -0.8899   -6.5665    0.0000 N   0  0  0  0  0  0  0  0  0  0  0  0
   -1.5000   -5.1962    0.0000 C   0  0  0  0  0  0  0  0  0  0  0  0
   -0.7500   -3.8971    0.0000 C   0  0  0  0  0  0  0  0  0  0  0  0
    0.7500   -3.8971    0.0000 C   0  0  0  0  0  0  0  0  0  0  0  0
    1.5000   -5.1962    0.0000 O   0  0  0  0  0  0  0  0  0  0  0  0
    1.5000   -2.5981    0.0000 N   0  0  0  0  0  4  0  0  0  0  0  0
    0.7500   -1.2990    0.0000 C   0  0  0  0  0  0  0  0  0  0  0  0
    1.5000    0.0000    0.0000 C   0  0  0  0  0  0  0  0  0  0  0  0
    0.7500    1.2990    0.0000 C   0  0  0  0  0  0  0  0  0  0  0  0
   -0.7500    1.2990    0.0000 C   0  0  0  0  0  0  0  0  0  0  0  0
   -1.5000    2.5981    0.0000 Cl  0  0  0  0  0  0  0  0  0  0  0  0
   -1.5000    0.0000    0.0000 C   0  0  0  0  0  0  0  0  0  0  0  0
   -0.7500   -1.2990    0.0000 C   0  0  0  0  0  0  0  0  0  0  0  0
   -1.5000   -2.5981    0.0000 C   0  0  0  0  0  0  0  0  0  0  0  0
   -3.0000   -2.5981    0.0000 C   0  0  0  0  0  0  0  0  0  0  0  0
   -3.7500   -1.2990    0.0000 C   0  0  0  0  0  0  0  0  0  0  0  0
   -5.2500   -1.2990    0.0000 C   0  0  0  0  0  0  0  0  0  0  0  0
   -6.0000   -2.5981    0.0000 C   0  0  0  0  0  0  0  0  0  0  0  0
   -5.2500   -3.8971    0.0000 C   0  0  0  0  0  0  0  0  0  0  0  0
   -3.7500   -3.8971    0.0000 C   0  0  0  0  0  0  0  0  0  0  0  0
   -2.9918   -5.3529    0.0000 C   0  0  0  0  0  0  0  0  0  0  0  0
   -3.3037   -6.8202    0.0000 C   0  0  0  0  0  0  0  0  0  0  0  0
   -4.6740   -7.4303    0.0000 C   0  0  0  0  0  0  0  0  0  0  0  0
   -4.8308   -8.9221    0.0000 C   0  0  0  0  0  0  0  0  0  0  0  0
   -6.2011   -9.5322    0.0000 C   0  0  0  0  0  0  0  0  0  0  0  0
   -7.4146   -8.6505    0.0000 C   0  0  0  0  0  0  0  0  0  0  0  0
   -7.2578   -7.1587    0.0000 C   0  0  0  0  0  0  0  0  0  0  0  0
   -5.8875   -6.5486    0.0000 C   0  0  0  0  0  0  0  0  0  0  0  0
   -5.7307   -5.0568    0.0000 F   0  0  0  0  0  0  0  0  0  0  0  0
  1  2  1  0
  2  3  1  0
  3  4  2  0
  3  5  1  0
  5  6  1  0
  6  7  2  0
  8  7  1  6
  8  9  1  0
  9 10  2  0
  9 11  1  0
 11 12  2  0
 12 13  1  0
 13 14  2  0
 14 15  1  0
 15 16  1  0
 15 17  2  0
 17 18  1  0
 18 19  2  0
 19 20  1  0
 20 21  2  0
 21 22  1  0
 22 23  2  0
 23 24  1  0
 24 25  2  0
  7 26  1  0
 26 27  1  0
 27 28  1  1
 28 29  2  0
 29 30  1  0
 30 31  2  0
 31 32  1  0
 32 33  2  0
 33 34  1  0
 27  5  1  0
 33 28  1  0
 19  8  1  0
 25 20  1  0
 18 12  1  0
M  CHG  1  11   1
M  END
>  <Compound_ID>  (56) 
C40148097

>  <Active>  (56) 
0

>  <Smiles>  (56) 
CNC(=S)N1N=C([C@H]2C(=O)[NH+]=c3ccc(Cl)cc3=C2c2ccccc2)C[C@@H]1c1ccccc1F

>  <canonical_smi>  (56) 
CNC(=S)N1N=C([C@H]2C(=O)[NH+]=c3ccc(Cl)cc3=C2c2ccccc2)C[C@@H]1c1ccccc1F

>  <Set>  (56) 
G2 inactive

>  <Set_type>  (56) 
Train

>  <MW>  (56) 
492.0

>  <HBD>  (56) 
2

>  <HBA>  (56) 
4

>  <NRB>  (56) 
3

>  <NR>  (56) 
5

>  <NAR>  (56) 
3

>  <PSA>  (56) 
58.67

>  <Standard Type>  (56) 
nan

>  <Standard Relation>  (56) 
nan

>  <Standard Units>  (56) 
nan

>  <Standard Value>  (56) 
nan

>  <Assay ChEMBL ID>  (56) 
nan

>  <Assay Description>  (56) 
nan

>  <BAO Label>  (56) 
nan

>  <bits>  (56) 
<rdkit.DataStructs.cDataStructs.ExplicitBitVect object at 0x000001A323092B20>

>  <Group>  (56) 
G2

$$$$

     RDKit          2D

 39 42  0  0  0  0  0  0  0  0999 V2000
    2.6491    0.9642    0.0000 C   0  0  0  0  0  0  0  0  0  0  0  0
    1.5000    0.0000    0.0000 C   0  0  0  0  0  0  0  0  0  0  0  0
    2.6491   -0.9642    0.0000 C   0  0  0  0  0  0  0  0  0  0  0  0
    0.7500   -1.2990    0.0000 C   0  0  0  0  0  0  0  0  0  0  0  0
   -0.7500   -1.2990    0.0000 C   0  0  0  0  0  0  0  0  0  0  0  0
   -1.5000   -2.5981    0.0000 N   0  0  0  0  0  0  0  0  0  0  0  0
   -3.0000   -2.5981    0.0000 C   0  0  0  0  0  0  0  0  0  0  0  0
   -3.7500   -3.8971    0.0000 N   0  0  0  0  0  0  0  0  0  0  0  0
   -5.2500   -3.8971    0.0000 C   0  0  0  0  0  0  0  0  0  0  0  0
   -6.0000   -2.5981    0.0000 C   0  0  0  0  0  0  0  0  0  0  0  0
   -7.5000   -2.5981    0.0000 C   0  0  0  0  0  0  0  0  0  0  0  0
   -8.9095   -2.0850    0.0000 C   0  0  0  0  0  0  0  0  0  0  0  0
   -7.2395   -1.1209    0.0000 C   0  0  0  0  0  0  0  0  0  0  0  0
   -8.2500   -3.8971    0.0000 N   0  0  0  0  0  0  0  0  0  0  0  0
   -9.7500   -3.8971    0.0000 O   0  0  0  0  0  0  0  0  0  0  0  0
   -7.5000   -5.1962    0.0000 C   0  0  0  0  0  0  0  0  0  0  0  0
   -7.2395   -6.6734    0.0000 C   0  0  0  0  0  0  0  0  0  0  0  0
   -8.9095   -5.7092    0.0000 C   0  0  0  0  0  0  0  0  0  0  0  0
   -6.0000   -5.1962    0.0000 C   0  0  0  0  0  0  0  0  0  0  0  0
   -3.0000   -5.1962    0.0000 C   0  0  0  0  0  0  0  0  0  0  0  0
   -1.5000   -5.1962    0.0000 N   0  0  0  0  0  4  0  0  0  0  0  0
   -0.7500   -6.4952    0.0000 C   0  0  0  0  0  0  0  0  0  0  0  0
   -1.5000   -7.7942    0.0000 C   0  0  0  0  0  0  0  0  0  0  0  0
   -0.7500   -9.0933    0.0000 C   0  0  0  0  0  0  0  0  0  0  0  0
   -0.4895  -10.5705    0.0000 C   0  0  0  0  0  0  0  0  0  0  0  0
   -2.1595   -9.6063    0.0000 C   0  0  0  0  0  0  0  0  0  0  0  0
    0.7500   -9.0933    0.0000 N   0  0  0  0  0  0  0  0  0  0  0  0
    1.5000  -10.3923    0.0000 O   0  0  0  0  0  0  0  0  0  0  0  0
    1.5000   -7.7942    0.0000 C   0  0  0  0  0  0  0  0  0  0  0  0
    2.6491   -6.8300    0.0000 C   0  0  0  0  0  0  0  0  0  0  0  0
    2.6491   -8.7584    0.0000 C   0  0  0  0  0  0  0  0  0  0  0  0
    0.7500   -6.4952    0.0000 C   0  0  0  0  0  0  0  0  0  0  0  0
   -0.7500   -3.8971    0.0000 C   0  0  0  0  0  0  0  0  0  0  0  0
   -1.5000    0.0000    0.0000 C   0  0  0  0  0  0  0  0  0  0  0  0
   -0.7500    1.2990    0.0000 C   0  0  0  0  0  0  0  0  0  0  0  0
   -2.1595    1.8121    0.0000 C   0  0  0  0  0  0  0  0  0  0  0  0
   -0.4895    2.7762    0.0000 C   0  0  0  0  0  0  0  0  0  0  0  0
    0.7500    1.2990    0.0000 N   0  0  0  0  0  0  0  0  0  0  0  0
    1.5000    2.5981    0.0000 O   0  0  0  0  0  0  0  0  0  0  0  0
  1  2  1  0
  2  3  1  0
  2  4  1  0
  4  5  1  0
  5  6  1  0
  6  7  1  0
  7  8  1  0
  8  9  1  0
  9 10  1  0
 10 11  1  0
 11 12  1  0
 11 13  1  0
 11 14  1  0
 14 15  1  0
 14 16  1  0
 16 17  1  0
 16 18  1  0
 16 19  1  0
  8 20  1  0
 20 21  1  0
 21 22  1  0
 22 23  1  0
 23 24  1  0
 24 25  1  0
 24 26  1  0
 24 27  1  0
 27 28  1  0
 27 29  1  0
 29 30  1  0
 29 31  1  0
 29 32  1  0
 21 33  1  0
  5 34  1  0
 34 35  1  0
 35 36  1  0
 35 37  1  0
 35 38  1  0
 38 39  1  0
 38  2  1  0
 33  6  1  0
 19  9  1  0
 32 22  1  0
M  CHG  1  21   1
M  END
>  <Compound_ID>  (57) 
C32106593

>  <Active>  (57) 
0

>  <Smiles>  (57) 
CC1(C)CC(N2CN(C3CC(C)(C)N(O)C(C)(C)C3)C[NH+](C3CC(C)(C)N(O)C(C)(C)C3)C2)CC(C)(C)N1O

>  <canonical_smi>  (57) 
CC1(C)CC(N2CN(C3CC(C)(C)N(O)C(C)(C)C3)C[NH+](C3CC(C)(C)N(O)C(C)(C)C3)C2)CC(C)(C)N1O

>  <Set>  (57) 
G2 inactive

>  <Set_type>  (57) 
Train

>  <MW>  (57) 
553.86

>  <HBD>  (57) 
4

>  <HBA>  (57) 
8

>  <NRB>  (57) 
3

>  <NR>  (57) 
4

>  <NAR>  (57) 
0

>  <PSA>  (57) 
81.33

>  <Standard Type>  (57) 
nan

>  <Standard Relation>  (57) 
nan

>  <Standard Units>  (57) 
nan

>  <Standard Value>  (57) 
nan

>  <Assay ChEMBL ID>  (57) 
nan

>  <Assay Description>  (57) 
nan

>  <BAO Label>  (57) 
nan

>  <bits>  (57) 
<rdkit.DataStructs.cDataStructs.ExplicitBitVect object at 0x000001A3230936F0>

>  <Group>  (57) 
G2

$$$$

     RDKit          2D

 29 32  0  0  0  0  0  0  0  0999 V2000
   -8.2500   -6.4952    0.0000 O   0  0  0  0  0  0  0  0  0  0  0  0
   -7.5000   -5.1962    0.0000 N   0  0  0  0  0  4  0  0  0  0  0  0
   -8.2500   -3.8971    0.0000 O   0  0  0  0  0  1  0  0  0  0  0  0
   -6.0000   -5.1962    0.0000 C   0  0  0  0  0  0  0  0  0  0  0  0
   -5.2500   -3.8971    0.0000 C   0  0  0  0  0  0  0  0  0  0  0  0
   -3.7500   -3.8971    0.0000 C   0  0  0  0  0  0  0  0  0  0  0  0
   -3.0000   -5.1962    0.0000 C   0  0  0  0  0  0  0  0  0  0  0  0
   -1.5000   -5.1962    0.0000 C   0  0  0  0  0  0  0  0  0  0  0  0
   -0.7500   -6.4952    0.0000 N   0  0  0  0  0  0  0  0  0  0  0  0
   -1.5000   -7.7942    0.0000 C   0  0  0  0  0  0  0  0  0  0  0  0
   -3.0000   -7.7942    0.0000 N   0  0  0  0  0  4  0  0  0  0  0  0
   -3.7500   -9.0933    0.0000 C   0  0  0  0  0  0  0  0  0  0  0  0
   -3.0000  -10.3923    0.0000 C   0  0  0  0  0  0  0  0  0  0  0  0
   -1.5000  -10.3923    0.0000 C   0  0  0  0  0  0  0  0  0  0  0  0
   -0.7500   -9.0933    0.0000 C   0  0  0  0  0  0  0  0  0  0  0  0
    0.7500   -9.0933    0.0000 O   0  0  0  0  0  0  0  0  0  0  0  0
   -0.7500   -3.8971    0.0000 C   0  0  0  0  0  0  0  0  0  0  0  0
    0.7500   -3.8971    0.0000 C   0  0  0  0  0  0  0  0  0  0  0  0
    1.5000   -2.5981    0.0000 C   0  0  0  0  0  0  0  0  0  0  0  0
    0.7500   -1.2990    0.0000 C   0  0  0  0  0  0  0  0  0  0  0  0
    1.5000    0.0000    0.0000 C   0  0  0  0  0  0  0  0  0  0  0  0
    0.7500    1.2990    0.0000 C   0  0  0  0  0  0  0  0  0  0  0  0
   -0.7500    1.2990    0.0000 C   0  0  0  0  0  0  0  0  0  0  0  0
   -1.5000    0.0000    0.0000 N   0  0  0  0  0  0  0  0  0  0  0  0
   -0.7500   -1.2990    0.0000 C   0  0  0  0  0  0  0  0  0  0  0  0
   -1.5000   -2.5981    0.0000 C   0  0  0  0  0  0  0  0  0  0  0  0
   -3.0000   -2.5981    0.0000 O   0  0  0  0  0  0  0  0  0  0  0  0
   -3.7500   -6.4952    0.0000 C   0  0  0  0  0  0  0  0  0  0  0  0
   -5.2500   -6.4952    0.0000 C   0  0  0  0  0  0  0  0  0  0  0  0
  1  2  2  0
  2  3  1  0
  2  4  1  0
  4  5  2  0
  5  6  1  0
  6  7  2  0
  7  8  1  0
  8  9  1  6
  9 10  1  0
 10 11  2  0
 11 12  1  0
 12 13  2  0
 13 14  1  0
 14 15  2  0
 15 16  1  0
  8 17  1  0
 17 18  2  0
 18 19  1  0
 19 20  2  0
 20 21  1  0
 21 22  2  0
 22 23  1  0
 23 24  2  0
 24 25  1  0
 25 26  2  0
 26 27  1  0
  7 28  1  0
 28 29  2  0
 29  4  1  0
 15 10  1  0
 26 17  1  0
 25 20  1  0
M  CHG  3   2   1   3  -1  11   1
M  END
>  <Compound_ID>  (58) 
C05813804

>  <Active>  (58) 
0

>  <Smiles>  (58) 
O=[N+]([O-])c1ccc([C@@H](Nc2[nH+]cccc2O)c2ccc3cccnc3c2O)cc1

>  <canonical_smi>  (58) 
O=[N+]([O-])c1ccc([C@@H](Nc2[nH+]cccc2O)c2ccc3cccnc3c2O)cc1

>  <Set>  (58) 
G2 inactive

>  <Set_type>  (58) 
Train

>  <MW>  (58) 
389.39

>  <HBD>  (58) 
3

>  <HBA>  (58) 
6

>  <NRB>  (58) 
5

>  <NR>  (58) 
4

>  <NAR>  (58) 
4

>  <PSA>  (58) 
122.66

>  <Standard Type>  (58) 
nan

>  <Standard Relation>  (58) 
nan

>  <Standard Units>  (58) 
nan

>  <Standard Value>  (58) 
nan

>  <Assay ChEMBL ID>  (58) 
nan

>  <Assay Description>  (58) 
nan

>  <BAO Label>  (58) 
nan

>  <bits>  (58) 
<rdkit.DataStructs.cDataStructs.ExplicitBitVect object at 0x000001A3230929D0>

>  <Group>  (58) 
G2

$$$$

     RDKit          2D

 25 28  0  0  0  0  0  0  0  0999 V2000
   -3.8971   -7.3573    0.0000 O   0  0  0  0  0  0  0  0  0  0  0  0
   -2.5981   -8.1073    0.0000 C   0  0  0  0  0  0  0  0  0  0  0  0
   -1.2990   -7.3573    0.0000 C   0  0  0  0  0  0  0  0  0  0  0  0
   -1.2990   -5.8573    0.0000 N   0  0  0  0  0  0  0  0  0  0  0  0
   -0.0000   -5.1073    0.0000 C   0  0  0  0  0  0  0  0  0  0  0  0
    1.2990   -5.8573    0.0000 O   0  0  0  0  0  0  0  0  0  0  0  0
   -0.0000   -3.6073    0.0000 C   0  0  0  0  0  0  0  0  0  0  0  0
    1.2135   -2.7256    0.0000 C   0  0  0  0  0  0  0  0  0  0  0  0
    0.7500   -1.2990    0.0000 C   0  0  0  0  0  0  0  0  0  0  0  0
    1.5000    0.0000    0.0000 C   0  0  0  0  0  0  0  0  0  0  0  0
    0.7500    1.2990    0.0000 C   0  0  0  0  0  0  0  0  0  0  0  0
   -0.7500    1.2990    0.0000 C   0  0  0  0  0  0  0  0  0  0  0  0
   -1.5000    0.0000    0.0000 C   0  0  0  0  0  0  0  0  0  0  0  0
   -0.7500   -1.2990    0.0000 C   0  0  0  0  0  0  0  0  0  0  0  0
   -1.2135   -2.7256    0.0000 N   0  0  0  0  0  4  0  0  0  0  0  0
   -2.5981   -9.6073    0.0000 N   0  0  0  0  0  0  0  0  0  0  0  0
   -3.8971  -10.3573    0.0000 C   0  0  0  0  0  0  0  0  0  0  0  0
   -5.2674   -9.7472    0.0000 N   0  0  0  0  0  0  0  0  0  0  0  0
   -6.2711  -10.8619    0.0000 C   0  0  0  0  0  0  0  0  0  0  0  0
   -7.7711  -10.8619    0.0000 C   0  0  0  0  0  0  0  0  0  0  0  0
   -8.5211  -12.1610    0.0000 C   0  0  0  0  0  0  0  0  0  0  0  0
   -7.7711  -13.4600    0.0000 C   0  0  0  0  0  0  0  0  0  0  0  0
   -6.2711  -13.4600    0.0000 C   0  0  0  0  0  0  0  0  0  0  0  0
   -5.5211  -12.1610    0.0000 C   0  0  0  0  0  0  0  0  0  0  0  0
   -4.0539  -11.8491    0.0000 S   0  0  0  0  0  0  0  0  0  0  0  0
  1  2  2  0
  2  3  1  0
  3  4  1  0
  4  5  1  0
  5  6  2  0
  7  5  1  1
  7  8  1  0
  8  9  2  0
  9 10  1  0
 10 11  2  0
 11 12  1  0
 12 13  2  0
 13 14  1  0
 14 15  2  0
  2 16  1  0
 17 16  1  6
 17 18  1  0
 18 19  1  0
 19 20  2  0
 20 21  1  0
 21 22  2  0
 22 23  1  0
 23 24  2  0
 24 25  1  0
 15  7  1  0
 25 17  1  0
 14  9  1  0
 24 19  1  0
M  CHG  1  15   1
M  END
>  <Compound_ID>  (59) 
C63280025

>  <Active>  (59) 
0

>  <Smiles>  (59) 
O=C(CNC(=O)[C@@H]1C=c2ccccc2=[NH+]1)N[C@H]1Nc2ccccc2S1

>  <canonical_smi>  (59) 
O=C(CNC(=O)[C@@H]1C=c2ccccc2=[NH+]1)N[C@H]1Nc2ccccc2S1

>  <Set>  (59) 
G2 inactive

>  <Set_type>  (59) 
Train

>  <MW>  (59) 
353.43

>  <HBD>  (59) 
4

>  <HBA>  (59) 
4

>  <NRB>  (59) 
4

>  <NR>  (59) 
4

>  <NAR>  (59) 
2

>  <PSA>  (59) 
84.2

>  <Standard Type>  (59) 
nan

>  <Standard Relation>  (59) 
nan

>  <Standard Units>  (59) 
nan

>  <Standard Value>  (59) 
nan

>  <Assay ChEMBL ID>  (59) 
nan

>  <Assay Description>  (59) 
nan

>  <BAO Label>  (59) 
nan

>  <bits>  (59) 
<rdkit.DataStructs.cDataStructs.ExplicitBitVect object at 0x000001A323092F10>

>  <Group>  (59) 
G2

$$$$

     RDKit          2D

 28 29  0  0  0  0  0  0  0  0999 V2000
    2.6401   -3.1891    0.0000 C   0  0  0  0  0  0  0  0  0  0  0  0
    1.2135   -2.7256    0.0000 C   0  0  0  0  0  0  0  0  0  0  0  0
   -0.0000   -3.6073    0.0000 C   0  0  0  0  0  0  0  0  0  0  0  0
   -0.0000   -5.1073    0.0000 C   0  0  0  0  0  0  0  0  0  0  0  0
    1.2990   -5.8573    0.0000 O   0  0  0  0  0  0  0  0  0  0  0  0
   -1.2990   -5.8573    0.0000 N   0  0  0  0  0  0  0  0  0  0  0  0
   -1.2990   -7.3573    0.0000 N   0  0  0  0  0  0  0  0  0  0  0  0
   -1.2135   -2.7256    0.0000 O   0  0  0  0  0  0  0  0  0  0  0  0
   -0.7500   -1.2990    0.0000 C   0  0  0  0  0  0  0  0  0  0  0  0
    0.7500   -1.2990    0.0000 C   0  0  0  0  0  0  0  0  0  0  0  0
    1.5000    0.0000    0.0000 C   0  0  0  0  0  0  0  0  0  0  0  0
    3.0000    0.0000    0.0000 N   0  0  0  0  0  0  0  0  0  0  0  0
    3.7500    1.2990    0.0000 N   0  0  0  0  0  0  0  0  0  0  0  0
    5.2500    1.2990    0.0000 C   0  0  0  0  0  0  0  0  0  0  0  0
    6.0000   -0.0000    0.0000 O   0  0  0  0  0  1  0  0  0  0  0  0
    6.0000    2.5981    0.0000 C   0  0  0  0  0  0  0  0  0  0  0  0
    7.2990    1.8481    0.0000 F   0  0  0  0  0  0  0  0  0  0  0  0
    4.7010    3.3481    0.0000 F   0  0  0  0  0  0  0  0  0  0  0  0
    6.7500    3.8971    0.0000 C   0  0  0  0  0  0  0  0  0  0  0  0
    5.4510    4.6471    0.0000 F   0  0  0  0  0  0  0  0  0  0  0  0
    8.0490    3.1471    0.0000 F   0  0  0  0  0  0  0  0  0  0  0  0
    7.5000    5.1962    0.0000 C   0  0  0  0  0  0  0  0  0  0  0  0
    8.2500    6.4952    0.0000 F   0  0  0  0  0  0  0  0  0  0  0  0
    8.7990    4.4462    0.0000 F   0  0  0  0  0  0  0  0  0  0  0  0
    6.2010    5.9462    0.0000 F   0  0  0  0  0  0  0  0  0  0  0  0
    0.7500    1.2990    0.0000 C   0  0  0  0  0  0  0  0  0  0  0  0
   -0.7500    1.2990    0.0000 C   0  0  0  0  0  0  0  0  0  0  0  0
   -1.5000    0.0000    0.0000 C   0  0  0  0  0  0  0  0  0  0  0  0
  1  2  1  0
  2  3  2  0
  3  4  1  0
  4  5  2  0
  4  6  1  0
  6  7  1  0
  3  8  1  0
  8  9  1  0
  9 10  2  0
 10 11  1  0
 11 12  2  0
 12 13  1  0
 13 14  2  0
 14 15  1  0
 14 16  1  0
 16 17  1  0
 16 18  1  0
 16 19  1  0
 19 20  1  0
 19 21  1  0
 19 22  1  0
 22 23  1  0
 22 24  1  0
 22 25  1  0
 11 26  1  0
 26 27  1  0
 27 28  1  0
 10  2  1  0
 28  9  1  0
M  CHG  1  15  -1
M  END
>  <Compound_ID>  (60) 
C40823325

>  <Active>  (60) 
0

>  <Smiles>  (60) 
Cc1c(C(=O)NN)oc2c1/C(=N/N=C(\[O-])C(F)(F)C(F)(F)C(F)(F)F)CCC2

>  <canonical_smi>  (60) 
Cc1c(C(=O)NN)oc2c1/C(=N/N=C(\[O-])C(F)(F)C(F)(F)C(F)(F)F)CCC2

>  <Set>  (60) 
G2 inactive

>  <Set_type>  (60) 
Train

>  <MW>  (60) 
417.26

>  <HBD>  (60) 
2

>  <HBA>  (60) 
4

>  <NRB>  (60) 
4

>  <NR>  (60) 
2

>  <NAR>  (60) 
1

>  <PSA>  (60) 
116.04

>  <Standard Type>  (60) 
nan

>  <Standard Relation>  (60) 
nan

>  <Standard Units>  (60) 
nan

>  <Standard Value>  (60) 
nan

>  <Assay ChEMBL ID>  (60) 
nan

>  <Assay Description>  (60) 
nan

>  <BAO Label>  (60) 
nan

>  <bits>  (60) 
<rdkit.DataStructs.cDataStructs.ExplicitBitVect object at 0x000001A323093530>

>  <Group>  (60) 
G2

$$$$

     RDKit          2D

 31 33  0  0  0  0  0  0  0  0999 V2000
    3.0000    0.0000    0.0000 O   0  0  0  0  0  0  0  0  0  0  0  0
    1.5000    0.0000    0.0000 C   0  0  0  0  0  0  0  0  0  0  0  0
    0.7500   -1.2990    0.0000 C   0  0  0  0  0  0  0  0  0  0  0  0
   -0.7500   -1.2990    0.0000 C   0  0  0  0  0  0  0  0  0  0  0  0
   -1.5000    0.0000    0.0000 C   0  0  0  0  0  0  0  0  0  0  0  0
   -0.7500    1.2990    0.0000 C   0  0  0  0  0  0  0  0  0  0  0  0
    0.7500    1.2990    0.0000 C   0  0  0  0  0  0  0  0  0  0  0  0
    2.1595    1.8121    0.0000 O   0  0  0  0  0  0  0  0  0  0  0  0
    0.4895    2.7762    0.0000 C   0  0  0  0  0  0  0  0  0  0  0  0
   -0.9200    3.2893    0.0000 O   0  0  0  0  0  0  0  0  0  0  0  0
    1.6386    3.7404    0.0000 O   0  0  0  0  0  0  0  0  0  0  0  0
    1.3781    5.2176    0.0000 C   0  0  0  0  0  0  0  0  0  0  0  0
    2.5272    6.1818    0.0000 C   0  0  0  0  0  0  0  0  0  0  0  0
    3.9367    5.6688    0.0000 C   0  0  0  0  0  0  0  0  0  0  0  0
    5.0858    6.6330    0.0000 C   0  0  0  0  0  0  0  0  0  0  0  0
    4.8253    8.1102    0.0000 C   0  0  0  0  0  0  0  0  0  0  0  0
    3.4158    8.6232    0.0000 C   0  0  0  0  0  0  0  0  0  0  0  0
    3.1553   10.1004    0.0000 O   0  0  0  0  0  0  0  0  0  0  0  0
    2.2667    7.6590    0.0000 C   0  0  0  0  0  0  0  0  0  0  0  0
    0.8572    8.1721    0.0000 O   0  0  0  0  0  0  0  0  0  0  0  0
    0.5967    9.6493    0.0000 C   0  0  0  0  0  0  0  0  0  0  0  0
    1.7458   10.6135    0.0000 O   0  0  0  0  0  0  0  0  0  0  0  0
    1.4853   12.0907    0.0000 C   0  0  0  0  0  0  0  0  0  0  0  0
    2.6344   13.0549    0.0000 C   0  0  0  0  0  0  0  0  0  0  0  0
    2.3739   14.5321    0.0000 O   0  0  0  0  0  0  0  0  0  0  0  0
    0.0758   12.6037    0.0000 C   0  0  0  0  0  0  0  0  0  0  0  0
   -0.1847   14.0809    0.0000 O   0  0  0  0  0  0  0  0  0  0  0  0
   -1.0733   11.6395    0.0000 C   0  0  0  0  0  0  0  0  0  0  0  0
   -2.4828   12.1525    0.0000 O   0  0  0  0  0  0  0  0  0  0  0  0
   -0.8128   10.1623    0.0000 C   0  0  0  0  0  0  0  0  0  0  0  0
   -1.9619    9.1981    0.0000 O   0  0  0  0  0  0  0  0  0  0  0  0
  1  2  2  0
  2  3  1  0
  3  4  1  0
  4  5  1  0
  5  6  2  0
  6  7  1  0
  7  8  1  1
  7  9  1  0
  9 10  2  0
  9 11  1  0
 11 12  1  0
 12 13  1  0
 13 14  2  0
 14 15  1  0
 15 16  2  0
 16 17  1  0
 17 18  1  0
 17 19  2  0
 19 20  1  0
 21 20  1  1
 21 22  1  0
 22 23  1  0
 23 24  1  1
 24 25  1  0
 23 26  1  0
 26 27  1  6
 26 28  1  0
 28 29  1  1
 28 30  1  0
 30 31  1  1
  7  2  1  0
 19 13  1  0
 30 21  1  0
M  END
>  <Compound_ID>  (61) 
C31160903

>  <Active>  (61) 
0

>  <Smiles>  (61) 
O=C1CCC=C[C@]1(O)C(=O)OCc1cccc(O)c1O[C@@H]1O[C@H](CO)[C@@H](O)[C@H](O)[C@@H]1O

>  <canonical_smi>  (61) 
O=C1CCC=C[C@]1(O)C(=O)OCc1cccc(O)c1O[C@@H]1O[C@H](CO)[C@@H](O)[C@H](O)[C@@H]1O

>  <Set>  (61) 
G2 inactive

>  <Set_type>  (61) 
Train

>  <MW>  (61) 
440.4

>  <HBD>  (61) 
6

>  <HBA>  (61) 
11

>  <NRB>  (61) 
6

>  <NR>  (61) 
3

>  <NAR>  (61) 
1

>  <PSA>  (61) 
183.21

>  <Standard Type>  (61) 
nan

>  <Standard Relation>  (61) 
nan

>  <Standard Units>  (61) 
nan

>  <Standard Value>  (61) 
nan

>  <Assay ChEMBL ID>  (61) 
nan

>  <Assay Description>  (61) 
nan

>  <BAO Label>  (61) 
nan

>  <bits>  (61) 
<rdkit.DataStructs.cDataStructs.ExplicitBitVect object at 0x000001A3230938B0>

>  <Group>  (61) 
G2

$$$$

     RDKit          2D

 22 23  0  0  0  0  0  0  0  0999 V2000
    2.7760    0.0000    0.0000 N   0  0  0  0  0  0  0  0  0  0  0  0
    1.2760    0.0000    0.0000 N   0  0  0  0  0  0  0  0  0  0  0  0
    0.3943    1.2135    0.0000 C   0  0  0  0  0  0  0  0  0  0  0  0
    0.8578    2.6401    0.0000 O   0  0  0  0  0  0  0  0  0  0  0  0
   -1.0323    0.7500    0.0000 C   0  0  0  0  0  0  0  0  0  0  0  0
   -2.2458    1.6317    0.0000 C   0  0  0  0  0  0  0  0  0  0  0  0
   -3.6161    1.0216    0.0000 C   0  0  0  0  0  0  0  0  0  0  0  0
   -4.8297    1.9033    0.0000 O   0  0  0  0  0  0  0  0  0  0  0  0
   -1.0323   -0.7500    0.0000 S   0  0  0  0  0  0  0  0  0  0  0  0
    0.3943   -1.2135    0.0000 C   0  0  0  0  0  0  0  0  0  0  0  0
    0.8578   -2.6401    0.0000 N   0  0  0  0  0  0  0  0  0  0  0  0
   -0.1459   -3.7548    0.0000 N   0  0  0  0  0  0  0  0  0  0  0  0
    0.3177   -5.1814    0.0000 C   0  0  0  0  0  0  0  0  0  0  0  0
    1.7442   -5.6449    0.0000 S   0  0  0  0  0  0  0  0  0  0  0  0
    1.7442   -7.1449    0.0000 C   0  0  0  0  0  0  0  0  0  0  0  0
    2.9578   -8.0266    0.0000 C   0  0  0  0  0  0  0  0  0  0  0  0
    2.8010   -9.5184    0.0000 C   0  0  0  0  0  0  0  0  0  0  0  0
    4.0145  -10.4001    0.0000 O   0  0  0  0  0  0  0  0  0  0  0  0
    0.3177   -7.6085    0.0000 C   0  0  0  0  0  0  0  0  0  0  0  0
   -0.1459   -9.0350    0.0000 O   0  0  0  0  0  0  0  0  0  0  0  0
   -0.5640   -6.3949    0.0000 N   0  0  0  0  0  0  0  0  0  0  0  0
   -2.0640   -6.3949    0.0000 N   0  0  0  0  0  0  0  0  0  0  0  0
  1  2  1  0
  2  3  1  0
  3  4  2  0
  3  5  1  0
  5  6  1  1
  6  7  1  0
  7  8  1  0
  5  9  1  0
  9 10  1  0
 10 11  2  0
 11 12  1  0
 12 13  2  0
 13 14  1  0
 14 15  1  0
 15 16  1  6
 16 17  1  0
 17 18  1  0
 15 19  1  0
 19 20  2  0
 19 21  1  0
 21 22  1  0
 10  2  1  0
 21 13  1  0
M  END
>  <Compound_ID>  (62) 
C17213269

>  <Active>  (62) 
0

>  <Smiles>  (62) 
NN1C(=O)[C@H](CCO)S/C1=N\N=C1/S[C@H](CCO)C(=O)N1N

>  <canonical_smi>  (62) 
NN1C(=O)[C@H](CCO)S/C1=N\N=C1/S[C@H](CCO)C(=O)N1N

>  <Set>  (62) 
G2 inactive

>  <Set_type>  (62) 
Train

>  <MW>  (62) 
348.41

>  <HBD>  (62) 
4

>  <HBA>  (62) 
8

>  <NRB>  (62) 
5

>  <NR>  (62) 
2

>  <NAR>  (62) 
0

>  <PSA>  (62) 
157.84

>  <Standard Type>  (62) 
nan

>  <Standard Relation>  (62) 
nan

>  <Standard Units>  (62) 
nan

>  <Standard Value>  (62) 
nan

>  <Assay ChEMBL ID>  (62) 
nan

>  <Assay Description>  (62) 
nan

>  <BAO Label>  (62) 
nan

>  <bits>  (62) 
<rdkit.DataStructs.cDataStructs.ExplicitBitVect object at 0x000001A323091FC0>

>  <Group>  (62) 
G2

$$$$

     RDKit          2D

 24 26  0  0  0  0  0  0  0  0999 V2000
    3.0000    0.0000    0.0000 N   0  0  0  0  0  0  0  0  0  0  0  0
    1.5000    0.0000    0.0000 C   0  0  0  0  0  0  0  0  0  0  0  0
    0.7500   -1.2990    0.0000 C   0  0  0  0  0  0  0  0  0  0  0  0
   -0.7500   -1.2990    0.0000 C   0  0  0  0  0  0  0  0  0  0  0  0
   -1.5000   -2.5981    0.0000 N   0  0  0  0  0  0  0  0  0  0  0  0
   -0.7500   -3.8971    0.0000 C   0  0  0  0  0  0  0  0  0  0  0  0
   -1.5000   -5.1962    0.0000 C   0  0  0  0  0  0  0  0  0  0  0  0
   -0.7500   -6.4952    0.0000 C   0  0  0  0  0  0  0  0  0  0  0  0
    0.7500   -6.4952    0.0000 C   0  0  0  0  0  0  0  0  0  0  0  0
    1.5000   -7.7942    0.0000 N   0  0  0  0  0  0  0  0  0  0  0  0
    1.5000   -5.1962    0.0000 C   0  0  0  0  0  0  0  0  0  0  0  0
    0.7500   -3.8971    0.0000 C   0  0  0  0  0  0  0  0  0  0  0  0
   -1.5000    0.0000    0.0000 C   0  0  0  0  0  0  0  0  0  0  0  0
   -3.0000    0.0000    0.0000 N   0  0  0  0  0  0  0  0  0  0  0  0
   -0.7500    1.2990    0.0000 C   0  0  0  0  0  0  0  0  0  0  0  0
    0.7500    1.2990    0.0000 C   0  0  0  0  0  0  0  0  0  0  0  0
    1.5000    2.5981    0.0000 N   0  0  0  0  0  0  0  0  0  0  0  0
    3.0000    2.5981    0.0000 C   0  0  0  0  0  0  0  0  0  0  0  0
    3.7500    1.2990    0.0000 C   0  0  0  0  0  0  0  0  0  0  0  0
    5.2500    1.2990    0.0000 C   0  0  0  0  0  0  0  0  0  0  0  0
    6.0000    2.5981    0.0000 C   0  0  0  0  0  0  0  0  0  0  0  0
    7.5000    2.5981    0.0000 N   0  0  0  0  0  0  0  0  0  0  0  0
    5.2500    3.8971    0.0000 C   0  0  0  0  0  0  0  0  0  0  0  0
    3.7500    3.8971    0.0000 C   0  0  0  0  0  0  0  0  0  0  0  0
  1  2  1  0
  2  3  2  0
  3  4  1  0
  4  5  2  0
  5  6  1  0
  6  7  2  0
  7  8  1  0
  8  9  2  0
  9 10  1  0
  9 11  1  0
 11 12  2  0
  4 13  1  0
 13 14  1  0
 13 15  2  0
 15 16  1  0
 16 17  2  0
 17 18  1  0
 18 19  2  0
 19 20  1  0
 20 21  2  0
 21 22  1  0
 21 23  1  0
 23 24  2  0
 16  2  1  0
 24 18  1  0
 12  6  1  0
M  END
>  <Compound_ID>  (63) 
C15020023

>  <Active>  (63) 
0

>  <Smiles>  (63) 
NC1=C/C(=N\c2ccc(N)cc2)C(N)=C/C1=N/c1ccc(N)cc1

>  <canonical_smi>  (63) 
NC1=C/C(=N\c2ccc(N)cc2)C(N)=C/C1=N/c1ccc(N)cc1

>  <Set>  (63) 
G2 inactive

>  <Set_type>  (63) 
Train

>  <MW>  (63) 
318.38

>  <HBD>  (63) 
4

>  <HBA>  (63) 
4

>  <NRB>  (63) 
2

>  <NR>  (63) 
3

>  <NAR>  (63) 
2

>  <PSA>  (63) 
128.8

>  <Standard Type>  (63) 
nan

>  <Standard Relation>  (63) 
nan

>  <Standard Units>  (63) 
nan

>  <Standard Value>  (63) 
nan

>  <Assay ChEMBL ID>  (63) 
nan

>  <Assay Description>  (63) 
nan

>  <BAO Label>  (63) 
nan

>  <bits>  (63) 
<rdkit.DataStructs.cDataStructs.ExplicitBitVect object at 0x000001A323090120>

>  <Group>  (63) 
G2

$$$$

     RDKit          2D

 17 17  0  0  0  0  0  0  0  0999 V2000
    5.7760    0.0000    0.0000 N   0  0  0  0  0  0  0  0  0  0  0  0
    5.0260   -1.2990    0.0000 C   0  0  0  0  0  0  0  0  0  0  0  0
    3.5260   -1.2990    0.0000 C   0  0  0  0  0  0  0  0  0  0  0  0
    2.7760    0.0000    0.0000 S   0  0  0  0  0  0  0  0  0  0  0  0
    1.2760    0.0000    0.0000 C   0  0  0  0  0  0  0  0  0  0  0  0
    0.3943    1.2135    0.0000 N   0  0  0  0  0  0  0  0  0  0  0  0
   -1.0323    0.7500    0.0000 C   0  0  0  0  0  0  0  0  0  0  0  0
   -2.2458    1.6317    0.0000 S   0  0  0  0  0  0  0  0  0  0  0  0
   -2.0890    3.1235    0.0000 C   0  0  0  0  0  0  0  0  0  0  0  0
   -3.3025    4.0051    0.0000 C   0  0  0  0  0  0  0  0  0  0  0  0
   -4.6729    3.3950    0.0000 N   0  0  0  0  0  0  0  0  0  0  0  0
   -3.1458    5.4969    0.0000 N   0  0  0  0  0  0  0  0  0  0  0  0
   -1.7754    6.1070    0.0000 O   0  0  0  0  0  0  0  0  0  0  0  0
   -1.0323   -0.7500    0.0000 N   0  0  0  0  0  0  0  0  0  0  0  0
    0.3943   -1.2135    0.0000 S   0  0  0  0  0  0  0  0  0  0  0  0
    5.7760   -2.5981    0.0000 N   0  0  0  0  0  0  0  0  0  0  0  0
    7.2760   -2.5981    0.0000 O   0  0  0  0  0  0  0  0  0  0  0  0
  1  2  1  0
  2  3  1  0
  3  4  1  0
  4  5  1  0
  5  6  2  0
  6  7  1  0
  7  8  1  0
  8  9  1  0
  9 10  1  0
 10 11  1  0
 10 12  2  0
 12 13  1  0
  7 14  2  0
 14 15  1  0
  2 16  2  0
 16 17  1  0
 15  5  1  0
M  END
>  <Compound_ID>  (64) 
C08780825

>  <Active>  (64) 
0

>  <Smiles>  (64) 
N/C(CSc1nc(SC/C(N)=N\O)ns1)=N\O

>  <canonical_smi>  (64) 
N/C(CSc1nc(SC/C(N)=N\O)ns1)=N\O

>  <Set>  (64) 
G2 inactive

>  <Set_type>  (64) 
Train

>  <MW>  (64) 
294.39

>  <HBD>  (64) 
4

>  <HBA>  (64) 
8

>  <NRB>  (64) 
6

>  <NR>  (64) 
1

>  <NAR>  (64) 
1

>  <PSA>  (64) 
143.0

>  <Standard Type>  (64) 
nan

>  <Standard Relation>  (64) 
nan

>  <Standard Units>  (64) 
nan

>  <Standard Value>  (64) 
nan

>  <Assay ChEMBL ID>  (64) 
nan

>  <Assay Description>  (64) 
nan

>  <BAO Label>  (64) 
nan

>  <bits>  (64) 
<rdkit.DataStructs.cDataStructs.ExplicitBitVect object at 0x000001A323092A40>

>  <Group>  (64) 
G2

$$$$

     RDKit          2D

 25 28  0  0  0  0  0  0  0  0999 V2000
    8.5276    7.6001    0.0000 C   0  0  0  0  0  0  0  0  0  0  0  0
    8.5052    6.1003    0.0000 C   0  0  0  0  0  0  0  0  0  0  0  0
    9.7929    5.3309    0.0000 C   0  0  0  0  0  0  0  0  0  0  0  0
    9.7704    3.8311    0.0000 C   0  0  0  0  0  0  0  0  0  0  0  0
    8.4603    3.1006    0.0000 C   0  0  0  0  0  0  0  0  0  0  0  0
    7.1727    3.8700    0.0000 C   0  0  0  0  0  0  0  0  0  0  0  0
    7.1951    5.3698    0.0000 C   0  0  0  0  0  0  0  0  0  0  0  0
    6.0430    2.8830    0.0000 C   0  0  0  0  0  0  0  0  0  0  0  0
    4.5807    3.2168    0.0000 C   0  0  0  0  0  0  0  0  0  0  0  0
    3.5604    2.1172    0.0000 N   0  0  0  0  0  0  0  0  0  0  0  0
    2.0980    2.4510    0.0000 C   0  0  0  0  0  0  0  0  0  0  0  0
    1.6559    3.8844    0.0000 N   0  0  0  0  0  0  0  0  0  0  0  0
    0.1935    4.2182    0.0000 C   0  0  0  0  0  0  0  0  0  0  0  0
   -0.2487    5.6515    0.0000 C   0  0  0  0  0  0  0  0  0  0  0  0
   -0.8268    3.1186    0.0000 N   0  0  0  0  0  4  0  0  0  0  0  0
   -0.3846    1.6852    0.0000 C   0  0  0  0  0  0  0  0  0  0  0  0
    1.0777    1.3515    0.0000 C   0  0  0  0  0  0  0  0  0  0  0  0
    1.7286    0.0000    0.0000 C   0  0  0  0  0  0  0  0  0  0  0  0
    1.0777   -1.3515    0.0000 C   0  0  0  0  0  0  0  0  0  0  0  0
   -0.3846   -1.6852    0.0000 N   0  0  0  0  0  4  0  0  0  0  0  0
   -1.5574   -0.7500    0.0000 C   0  0  0  0  0  0  0  0  0  0  0  0
   -1.5574    0.7500    0.0000 C   0  0  0  0  0  0  0  0  0  0  0  0
    6.6326    1.5038    0.0000 N   0  0  0  0  0  0  0  0  0  0  0  0
    8.1265    1.6382    0.0000 N   0  0  0  0  0  0  0  0  0  0  0  0
    9.1135    0.5086    0.0000 C   0  0  0  0  0  0  0  0  0  0  0  0
  1  2  1  0
  2  3  2  0
  3  4  1  0
  4  5  2  0
  5  6  1  0
  6  7  2  0
  6  8  1  0
  8  9  1  0
  9 10  1  0
 10 11  1  0
 11 12  2  0
 12 13  1  0
 13 14  1  0
 13 15  2  0
 15 16  1  0
 16 17  2  0
 17 18  1  0
 18 19  1  0
 19 20  1  0
 20 21  1  0
 21 22  1  0
  8 23  2  0
 23 24  1  0
 24 25  1  0
  7  2  1  0
 17 11  1  0
 24  5  1  0
 22 16  1  0
M  CHG  2  15   1  20   1
M  END
>  <Compound_ID>  (65) 
C65381931

>  <Active>  (65) 
0

>  <Smiles>  (65) 
Cc1ccc2c(c1)c(CNc1nc(C)[nH+]c3c1CC[NH2+]CC3)nn2C

>  <canonical_smi>  (65) 
Cc1ccc2c(c1)c(CNc1nc(C)[nH+]c3c1CC[NH2+]CC3)nn2C

>  <Set>  (65) 
G2 inactive

>  <Set_type>  (65) 
Train

>  <MW>  (65) 
338.46

>  <HBD>  (65) 
2

>  <HBA>  (65) 
3

>  <NRB>  (65) 
3

>  <NR>  (65) 
4

>  <NAR>  (65) 
3

>  <PSA>  (65) 
73.49

>  <Standard Type>  (65) 
nan

>  <Standard Relation>  (65) 
nan

>  <Standard Units>  (65) 
nan

>  <Standard Value>  (65) 
nan

>  <Assay ChEMBL ID>  (65) 
nan

>  <Assay Description>  (65) 
nan

>  <BAO Label>  (65) 
nan

>  <bits>  (65) 
<rdkit.DataStructs.cDataStructs.ExplicitBitVect object at 0x000001A323091150>

>  <Group>  (65) 
G2

$$$$

     RDKit          2D

 37 42  0  0  0  0  0  0  0  0999 V2000
   -7.7227   -2.1088    0.0000 C   0  0  0  0  0  0  0  0  0  0  0  0
   -6.2961   -1.6453    0.0000 C   0  0  0  0  0  0  0  0  0  0  0  0
   -5.9843   -0.1781    0.0000 C   0  0  0  0  0  0  0  0  0  0  0  0
   -4.5577    0.2855    0.0000 C   0  0  0  0  0  0  0  0  0  0  0  0
   -4.2458    1.7527    0.0000 C   0  0  0  0  0  0  0  0  0  0  0  0
   -5.3605    2.7564    0.0000 C   0  0  0  0  0  0  0  0  0  0  0  0
   -6.7871    2.2929    0.0000 C   0  0  0  0  0  0  0  0  0  0  0  0
   -7.0990    0.8256    0.0000 C   0  0  0  0  0  0  0  0  0  0  0  0
   -5.1814   -2.6490    0.0000 C   0  0  0  0  0  0  0  0  0  0  0  0
   -3.7548   -2.1855    0.0000 N   0  0  0  0  0  4  0  0  0  0  0  0
   -2.6401   -3.1891    0.0000 C   0  0  0  0  0  0  0  0  0  0  0  0
   -2.9520   -4.6564    0.0000 C   0  0  0  0  0  0  0  0  0  0  0  0
   -3.6280   -5.0788    0.0000 C   0  0  0  0  0  0  0  0  0  0  0  0
   -1.8373   -5.6601    0.0000 C   0  0  0  0  0  0  0  0  0  0  0  0
   -2.1491   -7.1273    0.0000 C   0  0  0  0  0  0  0  0  0  0  0  0
   -1.0344   -8.1310    0.0000 C   0  0  0  0  0  0  0  0  0  0  0  0
    0.3922   -7.6675    0.0000 C   0  0  0  0  0  0  0  0  0  0  0  0
    0.7040   -6.2002    0.0000 C   0  0  0  0  0  0  0  0  0  0  0  0
   -0.4107   -5.1965    0.0000 C   0  0  0  0  0  0  0  0  0  0  0  0
   -1.2135   -2.7256    0.0000 N   0  0  0  0  0  0  0  0  0  0  0  0
   -0.0000   -3.6073    0.0000 N   0  0  0  0  0  0  0  0  0  0  0  0
    1.2135   -2.7256    0.0000 N   0  0  0  0  0  0  0  0  0  0  0  0
    0.7500   -1.2990    0.0000 C   0  0  0  0  0  0  0  0  0  0  0  0
    1.5000    0.0000    0.0000 C   0  0  0  0  0  0  0  0  0  0  0  0
    0.7500    1.2990    0.0000 C   0  0  0  0  0  0  0  0  0  0  0  0
   -0.7500    1.2990    0.0000 C   0  0  0  0  0  0  0  0  0  0  0  0
   -1.5000    0.0000    0.0000 C   0  0  0  0  0  0  0  0  0  0  0  0
   -0.7500   -1.2990    0.0000 C   0  0  0  0  0  0  0  0  0  0  0  0
   -5.4933   -4.1162    0.0000 N   0  0  0  0  0  0  0  0  0  0  0  0
   -4.4896   -5.2309    0.0000 N   0  0  0  0  0  0  0  0  0  0  0  0
   -5.2396   -6.5300    0.0000 N   0  0  0  0  0  0  0  0  0  0  0  0
   -6.7068   -6.2181    0.0000 C   0  0  0  0  0  0  0  0  0  0  0  0
   -7.9203   -7.0998    0.0000 C   0  0  0  0  0  0  0  0  0  0  0  0
   -9.2906   -6.4897    0.0000 C   0  0  0  0  0  0  0  0  0  0  0  0
   -9.4474   -4.9979    0.0000 C   0  0  0  0  0  0  0  0  0  0  0  0
   -8.2339   -4.1162    0.0000 C   0  0  0  0  0  0  0  0  0  0  0  0
   -6.8636   -4.7263    0.0000 C   0  0  0  0  0  0  0  0  0  0  0  0
  2  1  1  6
  2  3  1  0
  3  4  2  0
  4  5  1  0
  5  6  2  0
  6  7  1  0
  7  8  2  0
  2  9  1  0
  9 10  1  6
 11 10  1  6
 11 12  1  0
 12 13  1  6
 12 14  1  0
 14 15  2  0
 15 16  1  0
 16 17  2  0
 17 18  1  0
 18 19  2  0
 11 20  1  0
 20 21  1  0
 21 22  2  0
 22 23  1  0
 23 24  2  0
 24 25  1  0
 25 26  2  0
 26 27  1  0
 27 28  2  0
  9 29  1  0
 29 30  1  0
 30 31  2  0
 31 32  1  0
 32 33  2  0
 33 34  1  0
 34 35  2  0
 35 36  1  0
 36 37  2  0
  8  3  1  0
 19 14  1  0
 28 20  1  0
 37 29  1  0
 28 23  1  0
 37 32  1  0
M  CHG  1  10   1
M  END
>  <Compound_ID>  (66) 
C15771457

>  <Active>  (66) 
0

>  <Smiles>  (66) 
C[C@H](c1ccccc1)[C@H]([NH2+][C@@H]([C@@H](C)c1ccccc1)n1nnc2ccccc21)n1nnc2ccccc21

>  <canonical_smi>  (66) 
C[C@@H](c1ccccc1)[C@H]([NH2+][C@@H]([C@H](C)c1ccccc1)n1nnc2ccccc21)n1nnc2ccccc21

>  <Set>  (66) 
G2 inactive

>  <Set_type>  (66) 
Train

>  <MW>  (66) 
488.62

>  <HBD>  (66) 
1

>  <HBA>  (66) 
4

>  <NRB>  (66) 
8

>  <NR>  (66) 
6

>  <NAR>  (66) 
6

>  <PSA>  (66) 
78.03

>  <Standard Type>  (66) 
nan

>  <Standard Relation>  (66) 
nan

>  <Standard Units>  (66) 
nan

>  <Standard Value>  (66) 
nan

>  <Assay ChEMBL ID>  (66) 
nan

>  <Assay Description>  (66) 
nan

>  <BAO Label>  (66) 
nan

>  <bits>  (66) 
<rdkit.DataStructs.cDataStructs.ExplicitBitVect object at 0x000001A323093300>

>  <Group>  (66) 
G2

$$$$

     RDKit          2D

 12 13  0  0  0  0  0  0  0  0999 V2000
    2.7760    0.0000    0.0000 O   0  0  0  0  0  0  0  0  0  0  0  0
    1.2760    0.0000    0.0000 C   0  0  0  0  0  0  0  0  0  0  0  0
    0.3943    1.2135    0.0000 C   0  0  0  0  0  0  0  0  0  0  0  0
   -1.0323    0.7500    0.0000 C   0  0  0  0  0  0  0  0  0  0  0  0
   -2.4589    1.2135    0.0000 C   0  0  0  0  0  0  0  0  0  0  0  0
   -3.3405    0.0000    0.0000 C   0  0  0  0  0  0  0  0  0  0  0  0
   -4.8405    0.0000    0.0000 O   0  0  0  0  0  0  0  0  0  0  0  0
   -2.4589   -1.2135    0.0000 C   0  0  0  0  0  0  0  0  0  0  0  0
   -3.7579   -1.9635    0.0000 F   0  0  0  0  0  0  0  0  0  0  0  0
   -1.8488   -2.5838    0.0000 F   0  0  0  0  0  0  0  0  0  0  0  0
   -1.0323   -0.7500    0.0000 C   0  0  0  0  0  0  0  0  0  0  0  0
    0.3943   -1.2135    0.0000 O   0  0  0  0  0  0  0  0  0  0  0  0
  2  1  1  1
  2  3  1  0
  4  3  1  6
  4  5  1  0
  5  6  1  0
  6  7  1  6
  6  8  1  0
  8  9  1  0
  8 10  1  0
  8 11  1  0
 11 12  1  6
 12  2  1  0
 11  4  1  0
M  END
>  <Compound_ID>  (67) 
C39111964

>  <Active>  (67) 
0

>  <Smiles>  (67) 
O[C@@H]1C[C@H]2C[C@@H](O)C(F)(F)[C@H]2O1

>  <canonical_smi>  (67) 
O[C@@H]1C[C@H]2C[C@@H](O)C(F)(F)[C@H]2O1

>  <Set>  (67) 
G2 inactive

>  <Set_type>  (67) 
Train

>  <MW>  (67) 
180.15

>  <HBD>  (67) 
2

>  <HBA>  (67) 
3

>  <NRB>  (67) 
0

>  <NR>  (67) 
2

>  <NAR>  (67) 
0

>  <PSA>  (67) 
49.69

>  <Standard Type>  (67) 
nan

>  <Standard Relation>  (67) 
nan

>  <Standard Units>  (67) 
nan

>  <Standard Value>  (67) 
nan

>  <Assay ChEMBL ID>  (67) 
nan

>  <Assay Description>  (67) 
nan

>  <BAO Label>  (67) 
nan

>  <bits>  (67) 
<rdkit.DataStructs.cDataStructs.ExplicitBitVect object at 0x000001A37F97CC80>

>  <Group>  (67) 
G2

$$$$

     RDKit          2D

 12 11  0  0  0  0  0  0  0  0999 V2000
    0.0000    0.0000    0.0000 C   0  0  0  0  0  0  0  0  0  0  0  0
    1.2990    0.7500    0.0000 C   0  0  0  0  0  0  0  0  0  0  0  0
    2.5981   -0.0000    0.0000 C   0  0  0  0  0  0  0  0  0  0  0  0
    1.2990    2.2500    0.0000 C   0  0  0  0  0  0  0  0  0  0  0  0
    2.5981    3.0000    0.0000 C   0  0  0  0  0  0  0  0  0  0  0  0
    3.8971    2.2500    0.0000 O   0  0  0  0  0  0  0  0  0  0  0  0
    2.5981    4.5000    0.0000 N   0  0  0  0  0  0  0  0  0  0  0  0
    3.8971    5.2500    0.0000 C   0  0  0  0  0  0  0  0  0  0  0  0
    1.2990    5.2500    0.0000 C   0  0  0  0  0  0  0  0  0  0  0  0
   -0.0000    3.0000    0.0000 C   0  0  0  0  0  0  0  0  0  0  0  0
   -0.0000    4.5000    0.0000 N   0  0  0  0  0  0  0  0  0  0  0  0
   -1.2990    2.2500    0.0000 S   0  0  0  0  0  0  0  0  0  0  0  0
  1  2  1  0
  2  3  1  0
  4  2  1  6
  4  5  1  0
  5  6  2  0
  5  7  1  0
  7  8  1  0
  7  9  1  0
  4 10  1  0
 10 11  1  0
 10 12  2  0
M  END
>  <Compound_ID>  (68) 
C44832889

>  <Active>  (68) 
0

>  <Smiles>  (68) 
CC(C)[C@@H](C(=O)N(C)C)C(N)=S

>  <canonical_smi>  (68) 
CC(C)[C@@H](C(=O)N(C)C)C(N)=S

>  <Set>  (68) 
G2 inactive

>  <Set_type>  (68) 
Train

>  <MW>  (68) 
188.3

>  <HBD>  (68) 
1

>  <HBA>  (68) 
3

>  <NRB>  (68) 
3

>  <NR>  (68) 
0

>  <NAR>  (68) 
0

>  <PSA>  (68) 
46.33

>  <Standard Type>  (68) 
nan

>  <Standard Relation>  (68) 
nan

>  <Standard Units>  (68) 
nan

>  <Standard Value>  (68) 
nan

>  <Assay ChEMBL ID>  (68) 
nan

>  <Assay Description>  (68) 
nan

>  <BAO Label>  (68) 
nan

>  <bits>  (68) 
<rdkit.DataStructs.cDataStructs.ExplicitBitVect object at 0x000001A37F97CCF0>

>  <Group>  (68) 
G2

$$$$

     RDKit          2D

 14 16  0  0  0  0  0  0  0  0999 V2000
    2.7760    0.0000    0.0000 O   0  0  0  0  0  0  0  0  0  0  0  0
    1.2760    0.0000    0.0000 C   0  0  0  0  0  0  0  0  0  0  0  0
    0.3943    1.2135    0.0000 C   0  0  0  0  0  0  0  0  0  0  0  0
   -1.0323    0.7500    0.0000 C   0  0  0  0  0  0  0  0  0  0  0  0
   -1.0323   -0.7500    0.0000 C   0  0  0  0  0  0  0  0  0  0  0  0
   -1.9140   -1.9635    0.0000 C   0  0  0  0  0  0  0  0  0  0  0  0
   -1.0323   -3.1771    0.0000 C   0  0  0  0  0  0  0  0  0  0  0  0
    0.3943   -2.7135    0.0000 C   0  0  0  0  0  0  0  0  0  0  0  0
    0.3943   -1.2135    0.0000 C   0  0  0  0  0  0  0  0  0  0  0  0
   -3.3405   -1.5000    0.0000 C   0  0  0  0  0  0  0  0  0  0  0  0
   -3.3405   -0.0000    0.0000 C   0  0  0  0  0  0  0  0  0  0  0  0
   -4.5541    0.8817    0.0000 O   0  0  0  0  0  0  0  0  0  0  0  0
   -1.9140    0.4635    0.0000 C   0  0  0  0  0  0  0  0  0  0  0  0
   -1.4504    1.8901    0.0000 O   0  0  0  0  0  0  0  0  0  0  0  0
  1  2  2  0
  2  3  1  0
  3  4  1  0
  5  4  1  1
  5  6  1  0
  6  7  1  1
  7  8  1  0
  9  8  1  6
  6 10  1  0
 10 11  1  0
 11 12  1  6
 11 13  1  0
 13 14  1  6
  9  2  1  0
  9  5  1  0
 13  5  1  0
M  END
>  <Compound_ID>  (69) 
C45072164

>  <Active>  (69) 
0

>  <Smiles>  (69) 
O=C1CC[C@]23[C@@H](CC[C@@H]12)C[C@H](O)[C@@H]3O

>  <canonical_smi>  (69) 
O=C1CC[C@]23[C@@H](CC[C@@H]12)C[C@H](O)[C@@H]3O

>  <Set>  (69) 
G2 inactive

>  <Set_type>  (69) 
Train

>  <MW>  (69) 
196.25

>  <HBD>  (69) 
2

>  <HBA>  (69) 
3

>  <NRB>  (69) 
0

>  <NR>  (69) 
3

>  <NAR>  (69) 
0

>  <PSA>  (69) 
57.53

>  <Standard Type>  (69) 
nan

>  <Standard Relation>  (69) 
nan

>  <Standard Units>  (69) 
nan

>  <Standard Value>  (69) 
nan

>  <Assay ChEMBL ID>  (69) 
nan

>  <Assay Description>  (69) 
nan

>  <BAO Label>  (69) 
nan

>  <bits>  (69) 
<rdkit.DataStructs.cDataStructs.ExplicitBitVect object at 0x000001A37F97CD60>

>  <Group>  (69) 
G2

$$$$

     RDKit          2D

 25 28  0  0  0  0  0  0  0  0999 V2000
    2.6401   -5.5255    0.0000 N   0  0  0  0  0  0  0  0  0  0  0  0
    1.2135   -5.9890    0.0000 C   0  0  0  0  0  0  0  0  0  0  0  0
   -0.0000   -5.1073    0.0000 C   0  0  0  0  0  0  0  0  0  0  0  0
   -0.0000   -3.6073    0.0000 C   0  0  0  0  0  0  0  0  0  0  0  0
    1.2135   -2.7256    0.0000 N   0  0  0  0  0  0  0  0  0  0  0  0
    0.7500   -1.2990    0.0000 C   0  0  0  0  0  0  0  0  0  0  0  0
    1.5000    0.0000    0.0000 C   0  0  0  0  0  0  0  0  0  0  0  0
    0.7500    1.2990    0.0000 C   0  0  0  0  0  0  0  0  0  0  0  0
   -0.7500    1.2990    0.0000 C   0  0  0  0  0  0  0  0  0  0  0  0
   -1.5000    0.0000    0.0000 C   0  0  0  0  0  0  0  0  0  0  0  0
   -0.7500   -1.2990    0.0000 C   0  0  0  0  0  0  0  0  0  0  0  0
   -1.2135   -2.7256    0.0000 S   0  0  0  0  0  0  0  0  0  0  0  0
   -1.2135   -5.9890    0.0000 C   0  0  0  0  0  0  0  0  0  0  0  0
   -2.6401   -5.5255    0.0000 O   0  0  0  0  0  0  0  0  0  0  0  0
   -0.7500   -7.4156    0.0000 C   0  0  0  0  0  0  0  0  0  0  0  0
    0.7500   -7.4156    0.0000 N   0  0  0  0  0  0  0  0  0  0  0  0
    1.6317   -8.6291    0.0000 N   0  0  0  0  0  0  0  0  0  0  0  0
    1.0216   -9.9994    0.0000 C   0  0  0  0  0  0  0  0  0  0  0  0
    1.9033  -11.2129    0.0000 C   0  0  0  0  0  0  0  0  0  0  0  0
    1.2931  -12.5833    0.0000 C   0  0  0  0  0  0  0  0  0  0  0  0
    2.1748  -13.7968    0.0000 C   0  0  0  0  0  0  0  0  0  0  0  0
    3.6666  -13.6400    0.0000 C   0  0  0  0  0  0  0  0  0  0  0  0
    4.5483  -14.8535    0.0000 O   0  0  0  0  0  0  0  0  0  0  0  0
    4.2767  -12.2697    0.0000 C   0  0  0  0  0  0  0  0  0  0  0  0
    3.3950  -11.0561    0.0000 C   0  0  0  0  0  0  0  0  0  0  0  0
  1  2  1  0
  2  3  2  0
  3  4  1  0
  4  5  2  0
  5  6  1  0
  6  7  2  0
  7  8  1  0
  8  9  2  0
  9 10  1  0
 10 11  2  0
 11 12  1  0
  3 13  1  0
 13 14  2  0
 13 15  1  0
 15 16  1  0
 16 17  1  0
 17 18  2  0
 18 19  1  0
 19 20  2  0
 20 21  1  0
 21 22  2  0
 22 23  1  0
 22 24  1  0
 24 25  2  0
 16  2  1  0
 25 19  1  0
 12  4  1  0
 11  6  1  0
M  END
>  <Compound_ID>  (70) 
C13692037

>  <Active>  (70) 
0

>  <Smiles>  (70) 
NC1=C(c2nc3ccccc3s2)C(=O)CN1/N=C/c1ccc(O)cc1

>  <canonical_smi>  (70) 
NC1=C(c2nc3ccccc3s2)C(=O)CN1/N=C/c1ccc(O)cc1

>  <Set>  (70) 
G2 inactive

>  <Set_type>  (70) 
Train

>  <MW>  (70) 
350.4

>  <HBD>  (70) 
2

>  <HBA>  (70) 
5

>  <NRB>  (70) 
3

>  <NR>  (70) 
4

>  <NAR>  (70) 
3

>  <PSA>  (70) 
91.81

>  <Standard Type>  (70) 
nan

>  <Standard Relation>  (70) 
nan

>  <Standard Units>  (70) 
nan

>  <Standard Value>  (70) 
nan

>  <Assay ChEMBL ID>  (70) 
nan

>  <Assay Description>  (70) 
nan

>  <BAO Label>  (70) 
nan

>  <bits>  (70) 
<rdkit.DataStructs.cDataStructs.ExplicitBitVect object at 0x000001A37F97CDD0>

>  <Group>  (70) 
G2

$$$$

     RDKit          2D

 23 25  0  0  0  0  0  0  0  0999 V2000
   -2.2500   -6.4952    0.0000 N   0  0  0  0  0  0  0  0  0  0  0  0
   -1.5000   -5.1962    0.0000 C   0  0  0  0  0  0  0  0  0  0  0  0
   -0.7500   -3.8971    0.0000 C   0  0  0  0  0  0  0  0  0  0  0  0
    0.7500   -3.8971    0.0000 C   0  0  0  0  0  0  0  0  0  0  0  0
    1.5000   -5.1962    0.0000 N   0  0  0  0  0  0  0  0  0  0  0  0
    1.5000   -2.5981    0.0000 O   0  0  0  0  0  0  0  0  0  0  0  0
    0.7500   -1.2990    0.0000 C   0  0  0  0  0  0  0  0  0  0  0  0
    1.5000    0.0000    0.0000 N   0  0  0  0  0  0  0  0  0  0  0  0
    0.7500    1.2990    0.0000 C   0  0  0  0  0  0  0  0  0  0  0  0
    1.5000    2.5981    0.0000 O   0  0  0  0  0  0  0  0  0  0  0  0
   -0.7500    1.2990    0.0000 N   0  0  0  0  0  0  0  0  0  0  0  0
   -1.5000    0.0000    0.0000 C   0  0  0  0  0  0  0  0  0  0  0  0
   -3.0000    0.0000    0.0000 O   0  0  0  0  0  0  0  0  0  0  0  0
   -0.7500   -1.2990    0.0000 C   0  0  0  0  0  0  0  0  0  0  0  0
   -1.5000   -2.5981    0.0000 C   0  0  0  0  0  0  0  0  0  0  0  0
   -3.0000   -2.5981    0.0000 C   0  0  0  0  0  0  0  0  0  0  0  0
   -3.7500   -1.2990    0.0000 C   0  0  0  0  0  0  0  0  0  0  0  0
   -5.2500   -1.2990    0.0000 C   0  0  0  0  0  0  0  0  0  0  0  0
   -6.0000   -2.5981    0.0000 C   0  0  0  0  0  0  0  0  0  0  0  0
   -5.2500   -3.8971    0.0000 C   0  0  0  0  0  0  0  0  0  0  0  0
   -6.0000   -5.1962    0.0000 Cl  0  0  0  0  0  0  0  0  0  0  0  0
   -3.7500   -3.8971    0.0000 C   0  0  0  0  0  0  0  0  0  0  0  0
   -3.0000   -5.1962    0.0000 Cl  0  0  0  0  0  0  0  0  0  0  0  0
  1  2  3  0
  2  3  1  0
  3  4  2  0
  4  5  1  0
  4  6  1  0
  6  7  1  0
  7  8  2  0
  8  9  1  0
  9 10  2  0
  9 11  1  0
 11 12  1  0
 12 13  2  0
 14 12  1  1
 14 15  1  0
 15 16  1  1
 16 17  2  0
 17 18  1  0
 18 19  2  0
 19 20  1  0
 20 21  1  0
 20 22  2  0
 22 23  1  0
 15  3  1  0
 22 16  1  0
 14  7  1  0
M  END
>  <Compound_ID>  (71) 
C39342451

>  <Active>  (71) 
0

>  <Smiles>  (71) 
N#CC1=C(N)OC2=NC(=O)NC(=O)[C@@H]2[C@@H]1c1cccc(Cl)c1Cl

>  <canonical_smi>  (71) 
N#CC1=C(N)OC2=NC(=O)NC(=O)[C@@H]2[C@@H]1c1cccc(Cl)c1Cl

>  <Set>  (71) 
G2 inactive

>  <Set_type>  (71) 
Train

>  <MW>  (71) 
351.15

>  <HBD>  (71) 
2

>  <HBA>  (71) 
5

>  <NRB>  (71) 
1

>  <NR>  (71) 
3

>  <NAR>  (71) 
1

>  <PSA>  (71) 
117.57

>  <Standard Type>  (71) 
nan

>  <Standard Relation>  (71) 
nan

>  <Standard Units>  (71) 
nan

>  <Standard Value>  (71) 
nan

>  <Assay ChEMBL ID>  (71) 
nan

>  <Assay Description>  (71) 
nan

>  <BAO Label>  (71) 
nan

>  <bits>  (71) 
<rdkit.DataStructs.cDataStructs.ExplicitBitVect object at 0x000001A37F97CE40>

>  <Group>  (71) 
G2

$$$$

     RDKit          2D

 37 42  0  0  0  0  0  0  0  0999 V2000
    3.7500   -1.2990    0.0000 C   0  0  0  0  0  0  0  0  0  0  0  0
    3.0000    0.0000    0.0000 O   0  0  0  0  0  0  0  0  0  0  0  0
    1.5000    0.0000    0.0000 C   0  0  0  0  0  0  0  0  0  0  0  0
    0.7500   -1.2990    0.0000 C   0  0  0  0  0  0  0  0  0  0  0  0
    1.5000   -2.5981    0.0000 O   0  0  0  0  0  0  0  0  0  0  0  0
   -0.7500   -1.2990    0.0000 C   0  0  0  0  0  0  0  0  0  0  0  0
   -1.5000    0.0000    0.0000 C   0  0  0  0  0  0  0  0  0  0  0  0
   -0.7500    1.2990    0.0000 C   0  0  0  0  0  0  0  0  0  0  0  0
    0.7500    1.2990    0.0000 C   0  0  0  0  0  0  0  0  0  0  0  0
    1.5000    2.5981    0.0000 C   0  0  0  0  0  0  0  0  0  0  0  0
    0.7500    3.8971    0.0000 C   0  0  0  0  0  0  0  0  0  0  0  0
   -0.7500    3.8971    0.0000 C   0  0  0  0  0  0  0  0  0  0  0  0
   -1.5000    5.1962    0.0000 C   0  0  0  0  0  0  0  0  0  0  0  0
   -3.0000    5.1962    0.0000 C   0  0  0  0  0  0  0  0  0  0  0  0
   -3.7500    6.4952    0.0000 C   0  0  0  0  0  0  0  0  0  0  0  0
   -5.2500    6.4952    0.0000 C   0  0  0  0  0  0  0  0  0  0  0  0
   -6.0000    5.1962    0.0000 C   0  0  0  0  0  0  0  0  0  0  0  0
   -5.2500    3.8971    0.0000 C   0  0  0  0  0  0  0  0  0  0  0  0
   -6.0000    2.5981    0.0000 C   0  0  0  0  0  0  0  0  0  0  0  0
   -7.5000    2.5981    0.0000 C   0  0  0  0  0  0  0  0  0  0  0  0
   -8.2500    1.2990    0.0000 C   0  0  0  0  0  0  0  0  0  0  0  0
   -7.5000    0.0000    0.0000 C   0  0  0  0  0  0  0  0  0  0  0  0
   -6.0000    0.0000    0.0000 N   0  0  0  0  0  0  0  0  0  0  0  0
   -5.2500    1.2990    0.0000 C   0  0  0  0  0  0  0  0  0  0  0  0
   -3.7500    3.8971    0.0000 C   0  0  0  0  0  0  0  0  0  0  0  0
   -1.5000    2.5981    0.0000 O   0  0  0  0  0  0  0  0  0  0  0  0
    1.5000    5.1962    0.0000 C   0  0  0  0  0  0  0  0  0  0  0  0
    0.7500    6.4952    0.0000 C   0  0  0  0  0  0  0  0  0  0  0  0
   -0.7500    6.4952    0.0000 C   0  0  0  0  0  0  0  0  0  0  0  0
    1.5000    7.7942    0.0000 C   0  0  0  0  0  0  0  0  0  0  0  0
    3.0000    7.7942    0.0000 C   0  0  0  0  0  0  0  0  0  0  0  0
    4.4095    8.3073    0.0000 C   0  0  0  0  0  0  0  0  0  0  0  0
    2.7395    9.2714    0.0000 C   0  0  0  0  0  0  0  0  0  0  0  0
    3.7500    6.4952    0.0000 N   0  0  0  0  0  4  0  0  0  0  0  0
    3.0000    5.1962    0.0000 C   0  0  0  0  0  0  0  0  0  0  0  0
    3.7500    3.8971    0.0000 C   0  0  0  0  0  0  0  0  0  0  0  0
    3.0000    2.5981    0.0000 C   0  0  0  0  0  0  0  0  0  0  0  0
  1  2  1  0
  2  3  1  0
  3  4  2  0
  4  5  1  0
  4  6  1  0
  6  7  2  0
  7  8  1  0
  8  9  2  0
  9 10  1  0
 10 11  2  0
 11 12  1  0
 12 13  2  0
 13 14  1  0
 14 15  2  0
 15 16  1  0
 16 17  2  0
 17 18  1  0
 18 19  1  0
 19 20  2  0
 20 21  1  0
 21 22  2  0
 22 23  1  0
 23 24  2  0
 18 25  2  0
 12 26  1  0
 11 27  1  0
 27 28  1  1
 28 29  1  0
 28 30  2  0
 30 31  1  0
 31 32  1  0
 31 33  1  0
 31 34  1  0
 35 34  1  6
 35 36  1  0
 36 37  2  0
  9  3  1  0
 37 10  1  0
 26  8  1  0
 35 27  1  0
 25 14  1  0
 24 19  1  0
M  CHG  1  34   1
M  END
>  <Compound_ID>  (72) 
C28823511

>  <Active>  (72) 
0

>  <Smiles>  (72) 
COc1c(O)ccc2c1C1=C(/C(=C/c3cccc(-c4cccnc4)c3)O2)[C@H]2C(C)=CC(C)(C)[NH2+][C@@H]2C=C1

>  <canonical_smi>  (72) 
COc1c(O)ccc2c1C1=C(/C(=C/c3cccc(-c4cccnc4)c3)O2)[C@H]2C(C)=CC(C)(C)[NH2+][C@@H]2C=C1

>  <Set>  (72) 
G2 inactive

>  <Set_type>  (72) 
Train

>  <MW>  (72) 
491.61

>  <HBD>  (72) 
2

>  <HBA>  (72) 
4

>  <NRB>  (72) 
3

>  <NR>  (72) 
6

>  <NAR>  (72) 
3

>  <PSA>  (72) 
68.19

>  <Standard Type>  (72) 
nan

>  <Standard Relation>  (72) 
nan

>  <Standard Units>  (72) 
nan

>  <Standard Value>  (72) 
nan

>  <Assay ChEMBL ID>  (72) 
nan

>  <Assay Description>  (72) 
nan

>  <BAO Label>  (72) 
nan

>  <bits>  (72) 
<rdkit.DataStructs.cDataStructs.ExplicitBitVect object at 0x000001A37F97CF20>

>  <Group>  (72) 
G2

$$$$

     RDKit          2D

 36 41  0  0  0  0  0  0  0  0999 V2000
    0.3177    5.1814    0.0000 C   0  0  0  0  0  0  0  0  0  0  0  0
    1.3213    4.0667    0.0000 C   0  0  0  0  0  0  0  0  0  0  0  0
   -0.1459    3.7548    0.0000 C   0  0  0  0  0  0  0  0  0  0  0  0
   -0.6094    2.3282    0.0000 C   0  0  0  0  0  0  0  0  0  0  0  0
    0.3943    1.2135    0.0000 C   0  0  0  0  0  0  0  0  0  0  0  0
    1.8615    1.5254    0.0000 C   0  0  0  0  0  0  0  0  0  0  0  0
    2.3250    2.9520    0.0000 C   0  0  0  0  0  0  0  0  0  0  0  0
    3.7923    3.2638    0.0000 C   0  0  0  0  0  0  0  0  0  0  0  0
    4.2558    4.6904    0.0000 C   0  0  0  0  0  0  0  0  0  0  0  0
    3.2521    5.8051    0.0000 C   0  0  0  0  0  0  0  0  0  0  0  0
    1.7849    5.4933    0.0000 C   0  0  0  0  0  0  0  0  0  0  0  0
    0.7812    6.6080    0.0000 C   0  0  0  0  0  0  0  0  0  0  0  0
    1.2447    8.0346    0.0000 C   0  0  0  0  0  0  0  0  0  0  0  0
    2.7119    8.3464    0.0000 C   0  0  0  0  0  0  0  0  0  0  0  0
    1.6889    9.4435    0.0000 C   0  0  0  0  0  0  0  0  0  0  0  0
    3.7156    7.2317    0.0000 C   0  0  0  0  0  0  0  0  0  0  0  0
    5.0859    7.8418    0.0000 C   0  0  0  0  0  0  0  0  0  0  0  0
    4.9291    9.3336    0.0000 C   0  0  0  0  0  0  0  0  0  0  0  0
    3.4619    9.6455    0.0000 C   0  0  0  0  0  0  0  0  0  0  0  0
    2.1762   10.4181    0.0000 O   0  0  0  0  0  0  0  0  0  0  0  0
    3.9255   11.0721    0.0000 C   0  0  0  0  0  0  0  0  0  0  0  0
    5.3927   11.3839    0.0000 N   0  0  0  0  0  4  0  0  0  0  0  0
    5.8562   12.8105    0.0000 C   0  0  0  0  0  0  0  0  0  0  0  0
    7.3234   13.1224    0.0000 C   0  0  0  0  0  0  0  0  0  0  0  0
    8.3271   12.0077    0.0000 C   0  0  0  0  0  0  0  0  0  0  0  0
    9.7943   12.3195    0.0000 C   0  0  0  0  0  0  0  0  0  0  0  0
   10.7980   11.2048    0.0000 Cl  0  0  0  0  0  0  0  0  0  0  0  0
   10.2579   13.7461    0.0000 C   0  0  0  0  0  0  0  0  0  0  0  0
    9.2542   14.8608    0.0000 C   0  0  0  0  0  0  0  0  0  0  0  0
    9.7177   16.2874    0.0000 Cl  0  0  0  0  0  0  0  0  0  0  0  0
    7.7869   14.5490    0.0000 C   0  0  0  0  0  0  0  0  0  0  0  0
    6.7832   15.6637    0.0000 O   0  0  0  0  0  0  0  0  0  0  0  0
    1.2760    0.0000    0.0000 O   0  0  0  0  0  0  0  0  0  0  0  0
    0.3943   -1.2135    0.0000 C   0  0  0  0  0  0  0  0  0  0  0  0
   -1.0323   -0.7500    0.0000 C   0  0  0  0  0  0  0  0  0  0  0  0
   -1.0323    0.7500    0.0000 O   0  0  0  0  0  0  0  0  0  0  0  0
  2  1  1  6
  2  3  1  0
  3  4  1  0
  4  5  1  0
  5  6  1  0
  6  7  1  0
  7  8  2  0
  8  9  1  0
 10  9  1  1
 10 11  1  0
 11 12  1  6
 12 13  1  0
 13 14  1  0
 14 15  1  6
 14 16  1  0
 16 17  1  6
 17 18  1  0
 18 19  1  0
 19 20  1  1
 19 21  1  0
 21 22  1  0
 22 23  2  0
 23 24  1  0
 24 25  2  0
 25 26  1  0
 26 27  1  0
 26 28  2  0
 28 29  1  0
 29 30  1  0
 29 31  2  0
 31 32  1  0
  5 33  1  0
 33 34  1  0
 34 35  1  0
 35 36  1  0
  7  2  1  0
 16 10  1  0
 31 24  1  0
 11  2  1  0
 19 14  1  0
 36  5  1  0
M  CHG  1  22   1
M  END
>  <Compound_ID>  (73) 
C43741012

>  <Active>  (73) 
0

>  <Smiles>  (73) 
C[C@@]12CCC3(CC1=CC[C@H]1[C@H]2CC[C@]2(C)[C@@H]1CC[C@@]2(O)C/[NH+]=C/c1cc(Cl)cc(Cl)c1O)OCCO3

>  <canonical_smi>  (73) 
C[C@@]12CCC3(CC1=CC[C@H]1[C@H]2CC[C@]2(C)[C@@H]1CC[C@@]2(O)C/[NH+]=C/c1cc(Cl)cc(Cl)c1O)OCCO3

>  <Set>  (73) 
G2 inactive

>  <Set_type>  (73) 
Train

>  <MW>  (73) 
535.53

>  <HBD>  (73) 
3

>  <HBA>  (73) 
4

>  <NRB>  (73) 
3

>  <NR>  (73) 
6

>  <NAR>  (73) 
1

>  <PSA>  (73) 
72.89

>  <Standard Type>  (73) 
nan

>  <Standard Relation>  (73) 
nan

>  <Standard Units>  (73) 
nan

>  <Standard Value>  (73) 
nan

>  <Assay ChEMBL ID>  (73) 
nan

>  <Assay Description>  (73) 
nan

>  <BAO Label>  (73) 
nan

>  <bits>  (73) 
<rdkit.DataStructs.cDataStructs.ExplicitBitVect object at 0x000001A37F97CF90>

>  <Group>  (73) 
G2

$$$$

     RDKit          2D

 21 22  0  0  0  0  0  0  0  0999 V2000
    7.2718   -2.2654    0.0000 C   0  0  0  0  0  0  0  0  0  0  0  0
    6.0583   -3.1471    0.0000 C   0  0  0  0  0  0  0  0  0  0  0  0
    4.6317   -2.6836    0.0000 N   0  0  0  0  0  0  0  0  0  0  0  0
    3.7500   -3.8971    0.0000 C   0  0  0  0  0  0  0  0  0  0  0  0
    2.2500   -3.8971    0.0000 N   0  0  0  0  0  0  0  0  0  0  0  0
    1.5000   -2.5981    0.0000 S   0  0  0  0  0  0  0  0  0  0  0  0
    0.2010   -3.3481    0.0000 O   0  0  0  0  0  0  0  0  0  0  0  0
    2.7990   -1.8481    0.0000 O   0  0  0  0  0  0  0  0  0  0  0  0
    0.7500   -1.2990    0.0000 C   0  0  0  0  0  0  0  0  0  0  0  0
    1.5000    0.0000    0.0000 C   0  0  0  0  0  0  0  0  0  0  0  0
    0.7500    1.2990    0.0000 C   0  0  0  0  0  0  0  0  0  0  0  0
   -0.7500    1.2990    0.0000 C   0  0  0  0  0  0  0  0  0  0  0  0
   -1.5000    2.5981    0.0000 C   0  0  0  0  0  0  0  0  0  0  0  0
   -2.2500    3.8971    0.0000 C   0  0  0  0  0  0  0  0  0  0  0  0
   -3.0000    5.1962    0.0000 C   0  0  0  0  0  0  0  0  0  0  0  0
   -2.2500    6.4952    0.0000 N   0  0  0  0  0  4  0  0  0  0  0  0
   -1.5000    0.0000    0.0000 C   0  0  0  0  0  0  0  0  0  0  0  0
   -0.7500   -1.2990    0.0000 C   0  0  0  0  0  0  0  0  0  0  0  0
    4.6317   -5.1106    0.0000 S   0  0  0  0  0  0  0  0  0  0  0  0
    6.0583   -4.6471    0.0000 C   0  0  0  0  0  0  0  0  0  0  0  0
    7.2718   -5.5288    0.0000 C   0  0  0  0  0  0  0  0  0  0  0  0
  1  2  1  0
  2  3  1  0
  3  4  1  0
  4  5  2  0
  5  6  1  0
  6  7  2  0
  6  8  2  0
  6  9  1  0
  9 10  2  0
 10 11  1  0
 11 12  2  0
 12 13  1  0
 13 14  3  0
 14 15  1  0
 15 16  1  0
 12 17  1  0
 17 18  2  0
  4 19  1  0
 19 20  1  0
 20 21  1  0
 20  2  2  0
 18  9  1  0
M  CHG  1  16   1
M  END
>  <Compound_ID>  (74) 
C49106360

>  <Active>  (74) 
0

>  <Smiles>  (74) 
Cc1[nH]/c(=N\S(=O)(=O)c2ccc(C#CC[NH3+])cc2)sc1C

>  <canonical_smi>  (74) 
Cc1[nH]/c(=N\S(=O)(=O)c2ccc(C#CC[NH3+])cc2)sc1C

>  <Set>  (74) 
G2 inactive

>  <Set_type>  (74) 
Train

>  <MW>  (74) 
322.44

>  <HBD>  (74) 
2

>  <HBA>  (74) 
2

>  <NRB>  (74) 
2

>  <NR>  (74) 
2

>  <NAR>  (74) 
2

>  <PSA>  (74) 
89.93

>  <Standard Type>  (74) 
nan

>  <Standard Relation>  (74) 
nan

>  <Standard Units>  (74) 
nan

>  <Standard Value>  (74) 
nan

>  <Assay ChEMBL ID>  (74) 
nan

>  <Assay Description>  (74) 
nan

>  <BAO Label>  (74) 
nan

>  <bits>  (74) 
<rdkit.DataStructs.cDataStructs.ExplicitBitVect object at 0x000001A37F97D000>

>  <Group>  (74) 
G2

$$$$

     RDKit          2D

 24 27  0  0  0  0  0  0  0  0999 V2000
    5.0490   -5.7452    0.0000 C   0  0  0  0  0  0  0  0  0  0  0  0
    3.7500   -6.4952    0.0000 C   0  0  0  0  0  0  0  0  0  0  0  0
    2.4510   -7.2452    0.0000 C   0  0  0  0  0  0  0  0  0  0  0  0
    2.4510   -8.7452    0.0000 O   0  0  0  0  0  0  0  0  0  0  0  0
    4.5000   -7.7942    0.0000 C   0  0  0  0  0  0  0  0  0  0  0  0
    3.7500   -9.0933    0.0000 O   0  0  0  0  0  0  0  0  0  0  0  0
    3.0000   -5.1962    0.0000 N   0  0  0  0  0  4  0  0  0  0  0  0
    1.5000   -5.1962    0.0000 C   0  0  0  0  0  0  0  0  0  0  0  0
    0.7500   -3.8971    0.0000 C   0  0  0  0  0  0  0  0  0  0  0  0
    1.5000   -2.5981    0.0000 C   0  0  0  0  0  0  0  0  0  0  0  0
    0.7500   -1.2990    0.0000 C   0  0  0  0  0  0  0  0  0  0  0  0
    1.5000    0.0000    0.0000 C   0  0  0  0  0  0  0  0  0  0  0  0
    0.7500    1.2990    0.0000 C   0  0  0  0  0  0  0  0  0  0  0  0
   -0.7500    1.2990    0.0000 C   0  0  0  0  0  0  0  0  0  0  0  0
   -1.5000    0.0000    0.0000 C   0  0  0  0  0  0  0  0  0  0  0  0
   -3.0000   -0.0000    0.0000 C   0  0  0  0  0  0  0  0  0  0  0  0
   -3.7500   -1.2990    0.0000 C   0  0  0  0  0  0  0  0  0  0  0  0
   -3.0000   -2.5981    0.0000 C   0  0  0  0  0  0  0  0  0  0  0  0
   -3.7500   -3.8971    0.0000 C   0  0  0  0  0  0  0  0  0  0  0  0
   -3.0000   -5.1962    0.0000 C   0  0  0  0  0  0  0  0  0  0  0  0
   -1.5000   -5.1962    0.0000 C   0  0  0  0  0  0  0  0  0  0  0  0
   -0.7500   -3.8971    0.0000 C   0  0  0  0  0  0  0  0  0  0  0  0
   -1.5000   -2.5981    0.0000 C   0  0  0  0  0  0  0  0  0  0  0  0
   -0.7500   -1.2990    0.0000 C   0  0  0  0  0  0  0  0  0  0  0  0
  1  2  1  0
  2  3  1  0
  3  4  1  0
  2  5  1  0
  5  6  1  0
  2  7  1  0
  7  8  1  0
  8  9  1  0
  9 10  2  0
 10 11  1  0
 11 12  2  0
 12 13  1  0
 13 14  2  0
 14 15  1  0
 15 16  2  0
 16 17  1  0
 17 18  2  0
 18 19  1  0
 19 20  2  0
 20 21  1  0
 21 22  2  0
 22 23  1  0
 23 24  2  0
 22  9  1  0
 24 11  1  0
 24 15  1  0
 23 18  1  0
M  CHG  1   7   1
M  END
>  <Compound_ID>  (75) 
C05302065

>  <Active>  (75) 
0

>  <Smiles>  (75) 
CC(CO)(CO)[NH2+]Cc1cc2cccc3ccc4cccc1c4c32

>  <canonical_smi>  (75) 
CC(CO)(CO)[NH2+]Cc1cc2cccc3ccc4cccc1c4c32

>  <Set>  (75) 
G2 inactive

>  <Set_type>  (75) 
Train

>  <MW>  (75) 
320.41

>  <HBD>  (75) 
3

>  <HBA>  (75) 
2

>  <NRB>  (75) 
5

>  <NR>  (75) 
4

>  <NAR>  (75) 
4

>  <PSA>  (75) 
57.07

>  <Standard Type>  (75) 
nan

>  <Standard Relation>  (75) 
nan

>  <Standard Units>  (75) 
nan

>  <Standard Value>  (75) 
nan

>  <Assay ChEMBL ID>  (75) 
nan

>  <Assay Description>  (75) 
nan

>  <BAO Label>  (75) 
nan

>  <bits>  (75) 
<rdkit.DataStructs.cDataStructs.ExplicitBitVect object at 0x000001A37F97D070>

>  <Group>  (75) 
G2

$$$$

     RDKit          2D

 23 25  0  0  0  0  0  0  0  0999 V2000
    3.0000    0.0000    0.0000 C   0  0  0  0  0  0  0  0  0  0  0  0
    1.5000    0.0000    0.0000 C   0  0  0  0  0  0  0  0  0  0  0  0
    0.7500   -1.2990    0.0000 C   0  0  0  0  0  0  0  0  0  0  0  0
   -0.7500   -1.2990    0.0000 C   0  0  0  0  0  0  0  0  0  0  0  0
   -1.5000    0.0000    0.0000 C   0  0  0  0  0  0  0  0  0  0  0  0
   -0.7500    1.2990    0.0000 C   0  0  0  0  0  0  0  0  0  0  0  0
    0.7500    1.2990    0.0000 C   0  0  0  0  0  0  0  0  0  0  0  0
    1.5000    2.5981    0.0000 N   0  0  0  0  0  0  0  0  0  0  0  0
    0.7500    3.8971    0.0000 C   0  0  0  0  0  0  0  0  0  0  0  0
    1.5000    5.1962    0.0000 N   0  0  0  0  0  4  0  0  0  0  0  0
    0.7500    6.4952    0.0000 C   0  0  0  0  0  0  0  0  0  0  0  0
   -0.7500    6.4952    0.0000 N   0  0  0  0  0  0  0  0  0  0  0  0
   -1.5000    5.1962    0.0000 C   0  0  0  0  0  0  0  0  0  0  0  0
   -3.0000    5.1962    0.0000 N   0  0  0  0  0  0  0  0  0  0  0  0
   -3.7500    6.4952    0.0000 N   0  0  0  0  0  0  0  0  0  0  0  0
   -5.2500    6.4952    0.0000 C   0  0  0  0  0  0  0  0  0  0  0  0
   -6.0000    7.7942    0.0000 C   0  0  0  0  0  0  0  0  0  0  0  0
   -7.5000    7.7942    0.0000 C   0  0  0  0  0  0  0  0  0  0  0  0
   -8.2500    6.4952    0.0000 C   0  0  0  0  0  0  0  0  0  0  0  0
   -7.5000    5.1962    0.0000 C   0  0  0  0  0  0  0  0  0  0  0  0
   -6.0000    5.1962    0.0000 C   0  0  0  0  0  0  0  0  0  0  0  0
   -0.7500    3.8971    0.0000 C   0  0  0  0  0  0  0  0  0  0  0  0
   -1.5000    2.5981    0.0000 N   0  0  0  0  0  0  0  0  0  0  0  0
  1  2  1  0
  2  3  2  0
  3  4  1  0
  4  5  2  0
  5  6  1  0
  6  7  2  0
  7  8  1  0
  8  9  1  0
  9 10  2  0
 10 11  1  0
 11 12  2  0
 12 13  1  0
 13 14  1  0
 14 15  1  0
 15 16  1  0
 16 17  2  0
 17 18  1  0
 18 19  2  0
 19 20  1  0
 20 21  2  0
 13 22  2  0
 22 23  1  0
  7  2  1  0
 22  9  1  0
 21 16  1  0
M  CHG  1  10   1
M  END
>  <Compound_ID>  (76) 
C40757444

>  <Active>  (76) 
0

>  <Smiles>  (76) 
Cc1ccccc1Nc1[nH+]cnc(NNc2ccccc2)c1N

>  <canonical_smi>  (76) 
Cc1ccccc1Nc1[nH+]cnc(NNc2ccccc2)c1N

>  <Set>  (76) 
G2 inactive

>  <Set_type>  (76) 
Train

>  <MW>  (76) 
307.38

>  <HBD>  (76) 
4

>  <HBA>  (76) 
5

>  <NRB>  (76) 
5

>  <NR>  (76) 
3

>  <NAR>  (76) 
3

>  <PSA>  (76) 
89.14

>  <Standard Type>  (76) 
nan

>  <Standard Relation>  (76) 
nan

>  <Standard Units>  (76) 
nan

>  <Standard Value>  (76) 
nan

>  <Assay ChEMBL ID>  (76) 
nan

>  <Assay Description>  (76) 
nan

>  <BAO Label>  (76) 
nan

>  <bits>  (76) 
<rdkit.DataStructs.cDataStructs.ExplicitBitVect object at 0x000001A37F97D0E0>

>  <Group>  (76) 
G2

$$$$

     RDKit          2D

 21 23  0  0  0  0  0  0  0  0999 V2000
    2.7760    0.0000    0.0000 N   0  0  0  0  0  0  0  0  0  0  0  0
    1.2760    0.0000    0.0000 C   0  0  0  0  0  0  0  0  0  0  0  0
    0.3943    1.2135    0.0000 N   0  0  0  0  0  0  0  0  0  0  0  0
   -1.0323    0.7500    0.0000 C   0  0  0  0  0  0  0  0  0  0  0  0
   -2.3313    1.5000    0.0000 C   0  0  0  0  0  0  0  0  0  0  0  0
   -2.3313    3.0000    0.0000 O   0  0  0  0  0  0  0  0  0  0  0  0
   -3.6304    3.7500    0.0000 C   0  0  0  0  0  0  0  0  0  0  0  0
   -4.3804    2.4510    0.0000 F   0  0  0  0  0  0  0  0  0  0  0  0
   -2.8804    5.0490    0.0000 F   0  0  0  0  0  0  0  0  0  0  0  0
   -4.9294    4.5000    0.0000 C   0  0  0  0  0  0  0  0  0  0  0  0
   -6.2284    3.7500    0.0000 F   0  0  0  0  0  0  0  0  0  0  0  0
   -4.9294    6.0000    0.0000 F   0  0  0  0  0  0  0  0  0  0  0  0
   -3.6304    0.7500    0.0000 C   0  0  0  0  0  0  0  0  0  0  0  0
   -3.6304   -0.7500    0.0000 C   0  0  0  0  0  0  0  0  0  0  0  0
   -2.3313   -1.5000    0.0000 C   0  0  0  0  0  0  0  0  0  0  0  0
   -1.0323   -0.7500    0.0000 C   0  0  0  0  0  0  0  0  0  0  0  0
    0.3943   -1.2135    0.0000 S   0  0  0  0  0  0  0  0  0  0  0  0
   -2.6432   -2.9672    0.0000 N   0  0  0  0  0  0  0  0  0  0  0  0
   -4.1350   -3.1240    0.0000 C   0  0  0  0  0  0  0  0  0  0  0  0
   -4.8850   -4.4231    0.0000 N   0  0  0  0  0  4  0  0  0  0  0  0
   -4.7451   -1.7537    0.0000 S   0  0  0  0  0  0  0  0  0  0  0  0
  1  2  1  0
  2  3  2  0
  3  4  1  0
  4  5  2  0
  5  6  1  0
  6  7  1  0
  7  8  1  0
  7  9  1  0
  7 10  1  0
 10 11  1  0
 10 12  1  0
  5 13  1  0
 13 14  2  0
 14 15  1  0
 15 16  2  0
 16 17  1  0
 15 18  1  0
 18 19  1  0
 19 20  1  6
 19 21  1  0
 17  2  1  0
 16  4  1  0
 21 14  1  0
M  CHG  1  20   1
M  END
>  <Compound_ID>  (77) 
C39933473

>  <Active>  (77) 
0

>  <Smiles>  (77) 
Nc1nc2c(OC(F)(F)C(F)F)cc3c(c2s1)N[C@H]([NH3+])S3

>  <canonical_smi>  (77) 
Nc1nc2c(OC(F)(F)C(F)F)cc3c(c2s1)N[C@H]([NH3+])S3

>  <Set>  (77) 
G2 inactive

>  <Set_type>  (77) 
Train

>  <MW>  (77) 
341.33

>  <HBD>  (77) 
3

>  <HBA>  (77) 
5

>  <NRB>  (77) 
3

>  <NR>  (77) 
3

>  <NAR>  (77) 
2

>  <PSA>  (77) 
87.81

>  <Standard Type>  (77) 
nan

>  <Standard Relation>  (77) 
nan

>  <Standard Units>  (77) 
nan

>  <Standard Value>  (77) 
nan

>  <Assay ChEMBL ID>  (77) 
nan

>  <Assay Description>  (77) 
nan

>  <BAO Label>  (77) 
nan

>  <bits>  (77) 
<rdkit.DataStructs.cDataStructs.ExplicitBitVect object at 0x000001A37F97D150>

>  <Group>  (77) 
G2

$$$$

     RDKit          2D

 35 39  0  0  0  0  0  0  0  0999 V2000
    8.3787   -8.7597    0.0000 C   0  0  0  0  0  0  0  0  0  0  0  0
    8.2219   -7.2679    0.0000 O   0  0  0  0  0  0  0  0  0  0  0  0
    6.8516   -6.6578    0.0000 C   0  0  0  0  0  0  0  0  0  0  0  0
    5.6381   -7.5395    0.0000 C   0  0  0  0  0  0  0  0  0  0  0  0
    4.2677   -6.9294    0.0000 C   0  0  0  0  0  0  0  0  0  0  0  0
    4.1110   -5.4376    0.0000 C   0  0  0  0  0  0  0  0  0  0  0  0
    2.7406   -4.8275    0.0000 N   0  0  0  0  0  0  0  0  0  0  0  0
    1.5271   -5.7092    0.0000 C   0  0  0  0  0  0  0  0  0  0  0  0
    1.6839   -7.2010    0.0000 S   0  0  0  0  0  0  0  0  0  0  0  0
    0.4704   -8.0826    0.0000 C   0  0  0  0  0  0  0  0  0  0  0  0
    0.6272   -9.5744    0.0000 C   0  0  0  0  0  0  0  0  0  0  0  0
    1.9975  -10.1845    0.0000 O   0  0  0  0  0  0  0  0  0  0  0  0
   -0.5864  -10.4561    0.0000 N   0  0  0  0  0  0  0  0  0  0  0  0
   -0.4296  -11.9479    0.0000 C   0  0  0  0  0  0  0  0  0  0  0  0
   -1.6431  -12.8296    0.0000 C   0  0  0  0  0  0  0  0  0  0  0  0
   -1.4863  -14.3214    0.0000 C   0  0  0  0  0  0  0  0  0  0  0  0
   -0.1160  -14.9315    0.0000 C   0  0  0  0  0  0  0  0  0  0  0  0
    1.0975  -14.0498    0.0000 C   0  0  0  0  0  0  0  0  0  0  0  0
    2.4679  -14.6599    0.0000 Cl  0  0  0  0  0  0  0  0  0  0  0  0
    0.9408  -12.5580    0.0000 C   0  0  0  0  0  0  0  0  0  0  0  0
    2.1543  -11.6763    0.0000 C   0  0  0  0  0  0  0  0  0  0  0  0
    0.1568   -5.0991    0.0000 N   0  0  0  0  0  0  0  0  0  0  0  0
   -0.0000   -3.6073    0.0000 C   0  0  0  0  0  0  0  0  0  0  0  0
   -1.2135   -2.7256    0.0000 S   0  0  0  0  0  0  0  0  0  0  0  0
   -0.7500   -1.2990    0.0000 C   0  0  0  0  0  0  0  0  0  0  0  0
    0.7500   -1.2990    0.0000 C   0  0  0  0  0  0  0  0  0  0  0  0
    1.2135   -2.7256    0.0000 C   0  0  0  0  0  0  0  0  0  0  0  0
    2.5838   -3.3357    0.0000 C   0  0  0  0  0  0  0  0  0  0  0  0
    3.7974   -2.4540    0.0000 O   0  0  0  0  0  0  0  0  0  0  0  0
    1.5000    0.0000    0.0000 C   0  0  0  0  0  0  0  0  0  0  0  0
    0.7500    1.2990    0.0000 C   0  0  0  0  0  0  0  0  0  0  0  0
   -0.7500    1.2990    0.0000 C   0  0  0  0  0  0  0  0  0  0  0  0
   -1.5000    0.0000    0.0000 C   0  0  0  0  0  0  0  0  0  0  0  0
    5.3245   -4.5559    0.0000 C   0  0  0  0  0  0  0  0  0  0  0  0
    6.6948   -5.1660    0.0000 C   0  0  0  0  0  0  0  0  0  0  0  0
  1  2  1  0
  2  3  1  0
  3  4  2  0
  4  5  1  0
  5  6  2  0
  6  7  1  0
  7  8  1  0
  8  9  1  0
  9 10  1  0
 10 11  1  0
 11 12  2  0
 11 13  1  0
 13 14  1  0
 14 15  2  0
 15 16  1  0
 16 17  2  0
 17 18  1  0
 18 19  1  0
 18 20  2  0
 20 21  1  0
  8 22  2  0
 22 23  1  0
 23 24  1  0
 24 25  1  0
 25 26  2  0
 26 27  1  0
 27 28  1  0
 28 29  2  0
 26 30  1  0
 30 31  1  0
 31 32  1  0
 32 33  1  0
  6 34  1  0
 34 35  2  0
 35  3  1  0
 28  7  1  0
 20 14  1  0
 27 23  2  0
 33 25  1  0
M  END
>  <Compound_ID>  (78) 
C01827392

>  <Active>  (78) 
0

>  <Smiles>  (78) 
COc1ccc(-n2c(SCC(=O)Nc3cccc(Cl)c3C)nc3sc4c(c3c2=O)CCCC4)cc1

>  <canonical_smi>  (78) 
COc1ccc(-n2c(SCC(=O)Nc3cccc(Cl)c3C)nc3sc4c(c3c2=O)CCCC4)cc1

>  <Set>  (78) 
G2 inactive

>  <Set_type>  (78) 
Train

>  <MW>  (78) 
526.08

>  <HBD>  (78) 
1

>  <HBA>  (78) 
5

>  <NRB>  (78) 
6

>  <NR>  (78) 
5

>  <NAR>  (78) 
4

>  <PSA>  (78) 
73.22

>  <Standard Type>  (78) 
nan

>  <Standard Relation>  (78) 
nan

>  <Standard Units>  (78) 
nan

>  <Standard Value>  (78) 
nan

>  <Assay ChEMBL ID>  (78) 
nan

>  <Assay Description>  (78) 
nan

>  <BAO Label>  (78) 
nan

>  <bits>  (78) 
<rdkit.DataStructs.cDataStructs.ExplicitBitVect object at 0x000001A37F97D460>

>  <Group>  (78) 
G2

$$$$

     RDKit          2D

 24 26  0  0  0  0  0  0  0  0999 V2000
    2.7990   -4.4462    0.0000 C   0  0  0  0  0  0  0  0  0  0  0  0
    1.5000   -5.1962    0.0000 C   0  0  0  0  0  0  0  0  0  0  0  0
    0.2010   -5.9462    0.0000 C   0  0  0  0  0  0  0  0  0  0  0  0
    2.2500   -6.4952    0.0000 C   0  0  0  0  0  0  0  0  0  0  0  0
    3.7500   -6.4952    0.0000 N   0  0  0  0  0  0  0  0  0  0  0  0
    4.5000   -7.7942    0.0000 C   0  0  0  0  0  0  0  0  0  0  0  0
    3.7500   -9.0933    0.0000 N   0  0  0  0  0  0  0  0  0  0  0  0
    6.0000   -7.7942    0.0000 N   0  0  0  0  0  4  0  0  0  0  0  0
    6.7500   -9.0933    0.0000 C   0  0  0  0  0  0  0  0  0  0  0  0
    8.2500   -9.0933    0.0000 C   0  0  0  0  0  0  0  0  0  0  0  0
    9.1317   -7.8797    0.0000 C   0  0  0  0  0  0  0  0  0  0  0  0
   10.5583   -8.3433    0.0000 C   0  0  0  0  0  0  0  0  0  0  0  0
   10.5583   -9.8433    0.0000 C   0  0  0  0  0  0  0  0  0  0  0  0
    9.1317  -10.3068    0.0000 O   0  0  0  0  0  0  0  0  0  0  0  0
    0.7500   -3.8971    0.0000 C   0  0  0  0  0  0  0  0  0  0  0  0
   -0.7500   -3.8971    0.0000 C   0  0  0  0  0  0  0  0  0  0  0  0
   -1.5000   -2.5981    0.0000 C   0  0  0  0  0  0  0  0  0  0  0  0
   -0.7500   -1.2990    0.0000 C   0  0  0  0  0  0  0  0  0  0  0  0
    0.7500   -1.2990    0.0000 C   0  0  0  0  0  0  0  0  0  0  0  0
    1.5000   -2.5981    0.0000 C   0  0  0  0  0  0  0  0  0  0  0  0
    1.5000    0.0000    0.0000 O   0  0  0  0  0  0  0  0  0  0  0  0
    0.7500    1.2990    0.0000 C   0  0  0  0  0  0  0  0  0  0  0  0
   -0.7500    1.2990    0.0000 C   0  0  0  0  0  0  0  0  0  0  0  0
   -1.5000    0.0000    0.0000 O   0  0  0  0  0  0  0  0  0  0  0  0
  1  2  1  0
  2  3  1  0
  2  4  1  0
  4  5  1  0
  5  6  1  0
  6  7  1  0
  6  8  2  0
  8  9  1  0
  9 10  1  0
 10 11  2  0
 11 12  1  0
 12 13  2  0
 13 14  1  0
  2 15  1  0
 15 16  2  0
 16 17  1  0
 17 18  2  0
 18 19  1  0
 19 20  2  0
 19 21  1  0
 21 22  1  0
 22 23  1  0
 23 24  1  0
 14 10  1  0
 20 15  1  0
 24 18  1  0
M  CHG  1   8   1
M  END
>  <Compound_ID>  (79) 
C66243711

>  <Active>  (79) 
0

>  <Smiles>  (79) 
CC(C)(CN/C(N)=[NH+]/Cc1ccco1)c1ccc2c(c1)OCCO2

>  <canonical_smi>  (79) 
CC(C)(CN/C(N)=[NH+]/Cc1ccco1)c1ccc2c(c1)OCCO2

>  <Set>  (79) 
G2 inactive

>  <Set_type>  (79) 
Train

>  <MW>  (79) 
330.41

>  <HBD>  (79) 
3

>  <HBA>  (79) 
5

>  <NRB>  (79) 
5

>  <NR>  (79) 
3

>  <NAR>  (79) 
2

>  <PSA>  (79) 
83.62

>  <Standard Type>  (79) 
nan

>  <Standard Relation>  (79) 
nan

>  <Standard Units>  (79) 
nan

>  <Standard Value>  (79) 
nan

>  <Assay ChEMBL ID>  (79) 
nan

>  <Assay Description>  (79) 
nan

>  <BAO Label>  (79) 
nan

>  <bits>  (79) 
<rdkit.DataStructs.cDataStructs.ExplicitBitVect object at 0x000001A37F95A8F0>

>  <Group>  (79) 
G2

$$$$

     RDKit          2D

 23 25  0  0  0  0  0  0  0  0999 V2000
    0.3207  -11.8291    0.0000 C   0  0  0  0  0  0  0  0  0  0  0  0
    1.5342  -10.9474    0.0000 C   0  0  0  0  0  0  0  0  0  0  0  0
    2.9608  -11.4110    0.0000 N   0  0  0  0  0  0  0  0  0  0  0  0
    3.8425  -10.1974    0.0000 N   0  0  0  0  0  0  0  0  0  0  0  0
    5.3425  -10.1974    0.0000 C   0  0  0  0  0  0  0  0  0  0  0  0
    2.9608   -8.9839    0.0000 C   0  0  0  0  0  0  0  0  0  0  0  0
    1.5342   -9.4474    0.0000 C   0  0  0  0  0  0  0  0  0  0  0  0
    0.3207   -8.5658    0.0000 C   0  0  0  0  0  0  0  0  0  0  0  0
   -1.0496   -9.1759    0.0000 C   0  0  0  0  0  0  0  0  0  0  0  0
    0.4775   -7.0740    0.0000 N   0  0  0  0  0  4  0  0  0  0  0  0
    1.8478   -6.4639    0.0000 C   0  0  0  0  0  0  0  0  0  0  0  0
    2.0046   -4.9721    0.0000 C   0  0  0  0  0  0  0  0  0  0  0  0
    0.8899   -3.9684    0.0000 C   0  0  0  0  0  0  0  0  0  0  0  0
    1.5000   -2.5981    0.0000 C   0  0  0  0  0  0  0  0  0  0  0  0
    0.7500   -1.2990    0.0000 C   0  0  0  0  0  0  0  0  0  0  0  0
    1.5000    0.0000    0.0000 C   0  0  0  0  0  0  0  0  0  0  0  0
    0.7500    1.2990    0.0000 C   0  0  0  0  0  0  0  0  0  0  0  0
   -0.7500    1.2990    0.0000 C   0  0  0  0  0  0  0  0  0  0  0  0
   -1.5000    2.5981    0.0000 F   0  0  0  0  0  0  0  0  0  0  0  0
   -1.5000    0.0000    0.0000 C   0  0  0  0  0  0  0  0  0  0  0  0
   -0.7500   -1.2990    0.0000 C   0  0  0  0  0  0  0  0  0  0  0  0
    2.9918   -2.7549    0.0000 N   0  0  0  0  0  0  0  0  0  0  0  0
    3.3037   -4.2221    0.0000 N   0  0  0  0  0  0  0  0  0  0  0  0
  2  1  1  1
  2  3  1  0
  3  4  1  0
  4  5  1  0
  4  6  1  0
  6  7  2  0
  7  8  1  0
  8  9  1  1
  8 10  1  0
 10 11  1  0
 11 12  1  0
 12 13  1  0
 13 14  2  0
 14 15  1  0
 15 16  2  0
 16 17  1  0
 17 18  2  0
 18 19  1  0
 18 20  1  0
 20 21  2  0
 14 22  1  0
 22 23  1  0
  7  2  1  0
 23 12  2  0
 21 15  1  0
M  CHG  1  10   1
M  END
>  <Compound_ID>  (80) 
C39305635

>  <Active>  (80) 
0

>  <Smiles>  (80) 
C[C@@H]1NN(C)C=C1[C@@H](C)[NH2+]Cc1cc(-c2ccc(F)cc2)[nH]n1

>  <canonical_smi>  (80) 
C[C@@H]1NN(C)C=C1[C@@H](C)[NH2+]Cc1cc(-c2ccc(F)cc2)[nH]n1

>  <Set>  (80) 
G2 inactive

>  <Set_type>  (80) 
Train

>  <MW>  (80) 
316.4

>  <HBD>  (80) 
3

>  <HBA>  (80) 
3

>  <NRB>  (80) 
5

>  <NR>  (80) 
3

>  <NAR>  (80) 
2

>  <PSA>  (80) 
60.56

>  <Standard Type>  (80) 
nan

>  <Standard Relation>  (80) 
nan

>  <Standard Units>  (80) 
nan

>  <Standard Value>  (80) 
nan

>  <Assay ChEMBL ID>  (80) 
nan

>  <Assay Description>  (80) 
nan

>  <BAO Label>  (80) 
nan

>  <bits>  (80) 
<rdkit.DataStructs.cDataStructs.ExplicitBitVect object at 0x000001A37F95A7A0>

>  <Group>  (80) 
G2

$$$$

     RDKit          2D

 30 34  0  0  0  0  0  0  0  0999 V2000
    3.7500   -9.0933    0.0000 O   0  0  0  0  0  0  0  0  0  0  0  0
    3.0000   -7.7942    0.0000 C   0  0  0  0  0  0  0  0  0  0  0  0
    1.5000   -7.7942    0.0000 C   0  0  0  0  0  0  0  0  0  0  0  0
    0.7500   -6.4952    0.0000 C   0  0  0  0  0  0  0  0  0  0  0  0
    1.5000   -5.1962    0.0000 C   0  0  0  0  0  0  0  0  0  0  0  0
    0.7500   -3.8971    0.0000 C   0  0  0  0  0  0  0  0  0  0  0  0
    1.5000   -2.5981    0.0000 S   0  0  0  0  0  0  0  0  0  0  0  0
    0.7500   -1.2990    0.0000 C   0  0  0  0  0  0  0  0  0  0  0  0
    1.5000    0.0000    0.0000 C   0  0  0  0  0  0  0  0  0  0  0  0
    0.7500    1.2990    0.0000 C   0  0  0  0  0  0  0  0  0  0  0  0
    1.5000    2.5981    0.0000 O   0  0  0  0  0  0  0  0  0  0  0  0
   -0.7500    1.2990    0.0000 C   0  0  0  0  0  0  0  0  0  0  0  0
   -1.5000    0.0000    0.0000 C   0  0  0  0  0  0  0  0  0  0  0  0
   -0.7500   -1.2990    0.0000 C   0  0  0  0  0  0  0  0  0  0  0  0
   -1.5000   -2.5981    0.0000 O   0  0  0  0  0  0  0  0  0  0  0  0
   -0.7500   -3.8971    0.0000 C   0  0  0  0  0  0  0  0  0  0  0  0
   -1.5000   -5.1962    0.0000 C   0  0  0  0  0  0  0  0  0  0  0  0
   -3.0000   -5.1962    0.0000 C   0  0  0  0  0  0  0  0  0  0  0  0
   -3.7500   -6.4952    0.0000 C   0  0  0  0  0  0  0  0  0  0  0  0
   -3.0000   -7.7942    0.0000 C   0  0  0  0  0  0  0  0  0  0  0  0
   -3.7500   -9.0933    0.0000 C   0  0  0  0  0  0  0  0  0  0  0  0
   -5.2500   -9.0933    0.0000 C   0  0  0  0  0  0  0  0  0  0  0  0
   -6.0000  -10.3923    0.0000 C   0  0  0  0  0  0  0  0  0  0  0  0
   -5.2500  -11.6913    0.0000 N   0  0  0  0  0  4  0  0  0  0  0  0
   -3.7500  -11.6913    0.0000 C   0  0  0  0  0  0  0  0  0  0  0  0
   -3.0000  -10.3923    0.0000 C   0  0  0  0  0  0  0  0  0  0  0  0
   -1.5000   -7.7942    0.0000 C   0  0  0  0  0  0  0  0  0  0  0  0
   -0.7500   -6.4952    0.0000 C   0  0  0  0  0  0  0  0  0  0  0  0
    3.0000   -5.1962    0.0000 C   0  0  0  0  0  0  0  0  0  0  0  0
    3.7500   -6.4952    0.0000 C   0  0  0  0  0  0  0  0  0  0  0  0
  1  2  1  0
  2  3  2  0
  3  4  1  0
  4  5  2  0
  6  5  1  6
  6  7  1  0
  7  8  1  0
  8  9  2  0
  9 10  1  0
 10 11  1  0
 10 12  2  0
 12 13  1  0
 13 14  2  0
 14 15  1  0
 15 16  1  0
 16 17  1  6
 17 18  2  0
 18 19  1  0
 19 20  2  0
 20 21  1  0
 21 22  2  0
 22 23  1  0
 23 24  1  0
 24 25  1  0
 25 26  1  0
 20 27  1  0
 27 28  2  0
  5 29  1  0
 29 30  2  0
 30  2  1  0
 16  6  1  0
 28 17  1  0
 14  8  1  0
 26 21  1  0
M  CHG  1  24   1
M  END
>  <Compound_ID>  (81) 
C27204622

>  <Active>  (81) 
0

>  <Smiles>  (81) 
Oc1ccc([C@H]2Sc3cc(O)ccc3O[C@H]2c2ccc(C3=CC[NH2+]CC3)cc2)cc1

>  <canonical_smi>  (81) 
Oc1ccc([C@H]2Sc3cc(O)ccc3O[C@H]2c2ccc(C3=CC[NH2+]CC3)cc2)cc1

>  <Set>  (81) 
G2 inactive

>  <Set_type>  (81) 
Train

>  <MW>  (81) 
418.54

>  <HBD>  (81) 
3

>  <HBA>  (81) 
4

>  <NRB>  (81) 
3

>  <NR>  (81) 
5

>  <NAR>  (81) 
3

>  <PSA>  (81) 
66.3

>  <Standard Type>  (81) 
nan

>  <Standard Relation>  (81) 
nan

>  <Standard Units>  (81) 
nan

>  <Standard Value>  (81) 
nan

>  <Assay ChEMBL ID>  (81) 
nan

>  <Assay Description>  (81) 
nan

>  <BAO Label>  (81) 
nan

>  <bits>  (81) 
<rdkit.DataStructs.cDataStructs.ExplicitBitVect object at 0x000001A37F95A6C0>

>  <Group>  (81) 
G2

$$$$

     RDKit          2D

 19 19  0  0  0  0  0  0  0  0999 V2000
    3.7500   -1.2990    0.0000 H   0  0  0  0  0  0  0  0  0  0  0  0
    3.0000    0.0000    0.0000 N   0  0  0  0  0  0  0  0  0  0  0  0
    1.5000    0.0000    0.0000 C   0  0  0  0  0  0  0  0  0  0  0  0
    0.7500   -1.2990    0.0000 N   0  0  0  0  0  0  0  0  0  0  0  0
   -0.7500   -1.2990    0.0000 C   0  0  0  0  0  0  0  0  0  0  0  0
   -1.5000   -2.5981    0.0000 N   0  0  0  0  0  0  0  0  0  0  0  0
   -3.0000   -2.5981    0.0000 C   0  0  0  0  0  0  0  0  0  0  0  0
   -3.7500   -1.2990    0.0000 O   0  0  0  0  0  0  0  0  0  0  0  0
   -3.7500   -3.8971    0.0000 C   0  0  0  0  0  0  0  0  0  0  0  0
   -4.5000   -5.1962    0.0000 Cl  0  0  0  0  0  0  0  0  0  0  0  0
   -5.0490   -3.1471    0.0000 Cl  0  0  0  0  0  0  0  0  0  0  0  0
   -2.4510   -4.6471    0.0000 Cl  0  0  0  0  0  0  0  0  0  0  0  0
   -1.5000    0.0000    0.0000 N   0  0  0  0  0  0  0  0  0  0  0  0
   -0.7500    1.2990    0.0000 C   0  0  0  0  0  0  0  0  0  0  0  0
   -1.5000    2.5981    0.0000 C   0  0  0  0  0  0  0  0  0  0  0  0
   -2.2500    3.8971    0.0000 Cl  0  0  0  0  0  0  0  0  0  0  0  0
   -0.2010    3.3481    0.0000 Cl  0  0  0  0  0  0  0  0  0  0  0  0
   -2.7990    1.8481    0.0000 Cl  0  0  0  0  0  0  0  0  0  0  0  0
    0.7500    1.2990    0.0000 O   0  0  0  0  0  0  0  0  0  0  0  0
  1  2  1  0
  2  3  2  0
  3  4  1  0
  4  5  2  0
  5  6  1  0
  6  7  1  0
  7  8  1  1
  7  9  1  0
  9 10  1  0
  9 11  1  0
  9 12  1  0
  5 13  1  0
 13 14  1  0
 14 15  1  1
 15 16  1  0
 15 17  1  0
 15 18  1  0
 14 19  1  0
 19  3  1  0
M  END
>  <Compound_ID>  (82) 
C35145045

>  <Active>  (82) 
0

>  <Smiles>  (82) 
[H]/N=C1\N=C(N[C@H](O)C(Cl)(Cl)Cl)N[C@@H](C(Cl)(Cl)Cl)O1

>  <canonical_smi>  (82) 
[H]/N=C1\N=C(N[C@H](O)C(Cl)(Cl)Cl)N[C@@H](C(Cl)(Cl)Cl)O1

>  <Set>  (82) 
G2 inactive

>  <Set_type>  (82) 
Train

>  <MW>  (82) 
378.86

>  <HBD>  (82) 
4

>  <HBA>  (82) 
4

>  <NRB>  (82) 
1

>  <NR>  (82) 
1

>  <NAR>  (82) 
0

>  <PSA>  (82) 
89.73

>  <Standard Type>  (82) 
nan

>  <Standard Relation>  (82) 
nan

>  <Standard Units>  (82) 
nan

>  <Standard Value>  (82) 
nan

>  <Assay ChEMBL ID>  (82) 
nan

>  <Assay Description>  (82) 
nan

>  <BAO Label>  (82) 
nan

>  <bits>  (82) 
<rdkit.DataStructs.cDataStructs.ExplicitBitVect object at 0x000001A37F95A650>

>  <Group>  (82) 
G2

$$$$

     RDKit          2D

 27 30  0  0  0  0  0  0  0  0999 V2000
   -7.6471   -6.1471    0.0000 C   0  0  0  0  0  0  0  0  0  0  0  0
   -6.3481   -5.3971    0.0000 C   0  0  0  0  0  0  0  0  0  0  0  0
   -6.3481   -3.8971    0.0000 C   0  0  0  0  0  0  0  0  0  0  0  0
   -7.6471   -3.1471    0.0000 O   0  0  0  0  0  0  0  0  0  0  0  0
   -5.0490   -3.1471    0.0000 C   0  0  0  0  0  0  0  0  0  0  0  0
   -5.0490   -1.6471    0.0000 O   0  0  0  0  0  0  0  0  0  0  0  0
   -3.7500   -3.8971    0.0000 C   0  0  0  0  0  0  0  0  0  0  0  0
   -3.0000   -2.5981    0.0000 C   0  0  0  0  0  0  0  0  0  0  0  0
   -1.5000   -2.5981    0.0000 C   0  0  0  0  0  0  0  0  0  0  0  0
   -0.7500   -3.8971    0.0000 C   0  0  0  0  0  0  0  0  0  0  0  0
   -1.5000   -5.1962    0.0000 C   0  0  0  0  0  0  0  0  0  0  0  0
    0.7500   -3.8971    0.0000 C   0  0  0  0  0  0  0  0  0  0  0  0
    1.5000   -2.5981    0.0000 C   0  0  0  0  0  0  0  0  0  0  0  0
    0.7500   -1.2990    0.0000 C   0  0  0  0  0  0  0  0  0  0  0  0
    1.5000    0.0000    0.0000 C   0  0  0  0  0  0  0  0  0  0  0  0
    2.6491    0.9642    0.0000 C   0  0  0  0  0  0  0  0  0  0  0  0
    2.6491   -0.9642    0.0000 C   0  0  0  0  0  0  0  0  0  0  0  0
    4.0586   -0.4512    0.0000 O   0  0  0  0  0  0  0  0  0  0  0  0
    0.7500    1.2990    0.0000 C   0  0  0  0  0  0  0  0  0  0  0  0
   -0.7500    1.2990    0.0000 C   0  0  0  0  0  0  0  0  0  0  0  0
   -1.5000    0.0000    0.0000 C   0  0  0  0  0  0  0  0  0  0  0  0
   -0.7500   -1.2990    0.0000 C   0  0  0  0  0  0  0  0  0  0  0  0
   -2.2500   -1.2990    0.0000 C   0  0  0  0  0  0  0  0  0  0  0  0
   -2.4510   -4.6471    0.0000 O   0  0  0  0  0  0  0  0  0  0  0  0
   -3.7500   -5.3971    0.0000 C   0  0  0  0  0  0  0  0  0  0  0  0
   -5.0490   -6.1471    0.0000 C   0  0  0  0  0  0  0  0  0  0  0  0
   -5.0490   -7.6471    0.0000 O   0  0  0  0  0  0  0  0  0  0  0  0
  1  2  2  0
  2  3  1  0
  3  4  1  1
  3  5  1  0
  5  6  1  6
  5  7  1  0
  7  8  1  1
  9  8  1  1
  9 10  1  0
 10 11  1  0
 10 12  2  0
 12 13  1  0
 14 13  1  6
 14 15  1  0
 15 16  1  1
 15 17  1  0
 17 18  1  0
 15 19  1  0
 19 20  1  0
 20 21  1  0
 21 22  1  0
 22 23  1  1
  7 24  1  0
 25 24  1  6
 25 26  1  0
 26 27  1  1
 26  2  1  0
 25  7  1  0
 22  9  1  0
 22 14  1  0
M  END
>  <Compound_ID>  (83) 
C31159486

>  <Active>  (83) 
0

>  <Smiles>  (83) 
C=C1[C@@H](O)[C@H](O)[C@]2(C[C@@H]3C(C)=CC[C@H]4[C@@](C)(CO)CCC[C@@]34C)O[C@@H]2[C@H]1O

>  <canonical_smi>  (83) 
C=C1[C@H](O)[C@H]2O[C@@]2(C[C@@H]2C(C)=CC[C@H]3[C@@](C)(CO)CCC[C@@]23C)[C@@H](O)[C@@H]1O

>  <Set>  (83) 
G2 inactive

>  <Set_type>  (83) 
Train

>  <MW>  (83) 
378.51

>  <HBD>  (83) 
4

>  <HBA>  (83) 
5

>  <NRB>  (83) 
3

>  <NR>  (83) 
4

>  <NAR>  (83) 
0

>  <PSA>  (83) 
93.45

>  <Standard Type>  (83) 
nan

>  <Standard Relation>  (83) 
nan

>  <Standard Units>  (83) 
nan

>  <Standard Value>  (83) 
nan

>  <Assay ChEMBL ID>  (83) 
nan

>  <Assay Description>  (83) 
nan

>  <BAO Label>  (83) 
nan

>  <bits>  (83) 
<rdkit.DataStructs.cDataStructs.ExplicitBitVect object at 0x000001A37F95A5E0>

>  <Group>  (83) 
G2

$$$$

     RDKit          2D

 20 20  0  0  0  0  0  0  0  0999 V2000
    3.5377   -3.4056    0.0000 C   0  0  0  0  0  0  0  0  0  0  0  0
    2.3886   -2.4414    0.0000 C   0  0  0  0  0  0  0  0  0  0  0  0
    0.9791   -2.9544    0.0000 C   0  0  0  0  0  0  0  0  0  0  0  0
    2.6491   -0.9642    0.0000 S   0  0  0  0  0  0  0  0  0  0  0  0
    1.5000    0.0000    0.0000 C   0  0  0  0  0  0  0  0  0  0  0  0
    2.6491    0.9642    0.0000 C   0  0  0  0  0  0  0  0  0  0  0  0
    0.7500   -1.2990    0.0000 O   0  0  0  0  0  0  0  0  0  0  0  0
   -0.7500   -1.2990    0.0000 C   0  0  0  0  0  0  0  0  0  0  0  0
   -0.4895   -2.7762    0.0000 C   0  0  0  0  0  0  0  0  0  0  0  0
   -2.1595   -1.8121    0.0000 C   0  0  0  0  0  0  0  0  0  0  0  0
   -2.4200   -3.2893    0.0000 O   0  0  0  0  0  0  0  0  0  0  0  0
   -1.5000    0.0000    0.0000 C   0  0  0  0  0  0  0  0  0  0  0  0
   -2.6491   -0.9642    0.0000 C   0  0  0  0  0  0  0  0  0  0  0  0
   -2.6491    0.9642    0.0000 O   0  0  0  0  0  0  0  0  0  0  0  0
   -0.7500    1.2990    0.0000 C   0  0  0  0  0  0  0  0  0  0  0  0
   -2.1595    1.8121    0.0000 C   0  0  0  0  0  0  0  0  0  0  0  0
   -0.4895    2.7762    0.0000 O   0  0  0  0  0  0  0  0  0  0  0  0
    0.7500    1.2990    0.0000 C   0  0  0  0  0  0  0  0  0  0  0  0
    0.4895    2.7762    0.0000 C   0  0  0  0  0  0  0  0  0  0  0  0
    2.1595    1.8121    0.0000 O   0  0  0  0  0  0  0  0  0  0  0  0
  1  2  1  0
  2  3  1  0
  2  4  1  0
  4  5  1  0
  5  6  1  1
  5  7  1  0
  7  8  1  0
  8  9  1  1
  8 10  1  0
 10 11  1  0
  8 12  1  0
 12 13  1  6
 12 14  1  0
 12 15  1  0
 15 16  1  6
 15 17  1  0
 15 18  1  0
 18 19  1  6
 18 20  1  0
 18  5  1  0
M  END
>  <Compound_ID>  (84) 
C09970486

>  <Active>  (84) 
0

>  <Smiles>  (84) 
CC(C)S[C@]1(C)O[C@](C)(CO)[C@@](C)(O)[C@@](C)(O)[C@@]1(C)O

>  <canonical_smi>  (84) 
CC(C)S[C@]1(C)O[C@](C)(CO)[C@@](C)(O)[C@@](C)(O)[C@@]1(C)O

>  <Set>  (84) 
G2 inactive

>  <Set_type>  (84) 
Train

>  <MW>  (84) 
308.44

>  <HBD>  (84) 
4

>  <HBA>  (84) 
6

>  <NRB>  (84) 
3

>  <NR>  (84) 
1

>  <NAR>  (84) 
0

>  <PSA>  (84) 
90.15

>  <Standard Type>  (84) 
nan

>  <Standard Relation>  (84) 
nan

>  <Standard Units>  (84) 
nan

>  <Standard Value>  (84) 
nan

>  <Assay ChEMBL ID>  (84) 
nan

>  <Assay Description>  (84) 
nan

>  <BAO Label>  (84) 
nan

>  <bits>  (84) 
<rdkit.DataStructs.cDataStructs.ExplicitBitVect object at 0x000001A37F95A570>

>  <Group>  (84) 
G2

$$$$

     RDKit          2D

 15 15  0  0  0  0  0  0  0  0999 V2000
    4.5000    0.0000    0.0000 N   0  0  0  0  0  0  0  0  0  0  0  0
    3.0000    0.0000    0.0000 C   0  0  0  0  0  0  0  0  0  0  0  0
    1.5000    0.0000    0.0000 C   0  0  0  0  0  0  0  0  0  0  0  0
    0.7500   -1.2990    0.0000 C   0  0  0  0  0  0  0  0  0  0  0  0
   -0.7500   -1.2990    0.0000 C   0  0  0  0  0  0  0  0  0  0  0  0
   -1.5000   -2.5981    0.0000 N   0  0  0  0  0  0  0  0  0  0  0  0
   -1.5000    0.0000    0.0000 C   0  0  0  0  0  0  0  0  0  0  0  0
   -3.0000    0.0000    0.0000 O   0  0  0  0  0  0  0  0  0  0  0  0
   -3.7500    1.2990    0.0000 C   0  0  0  0  0  0  0  0  0  0  0  0
   -5.2500    1.2990    0.0000 C   0  0  0  0  0  0  0  0  0  0  0  0
   -6.0000    2.5981    0.0000 N   0  0  0  0  0  0  0  0  0  0  0  0
   -6.0000    0.0000    0.0000 O   0  0  0  0  0  0  0  0  0  0  0  0
   -0.7500    1.2990    0.0000 C   0  0  0  0  0  0  0  0  0  0  0  0
   -1.5000    2.5981    0.0000 I   0  0  0  0  0  0  0  0  0  0  0  0
    0.7500    1.2990    0.0000 C   0  0  0  0  0  0  0  0  0  0  0  0
  1  2  3  0
  2  3  1  0
  3  4  2  0
  4  5  1  0
  5  6  1  0
  5  7  2  0
  7  8  1  0
  8  9  1  0
  9 10  1  0
 10 11  1  0
 10 12  2  0
  7 13  1  0
 13 14  1  0
 13 15  2  0
 15  3  1  0
M  END
>  <Compound_ID>  (85) 
C43415096

>  <Active>  (85) 
0

>  <Smiles>  (85) 
N#Cc1cc(N)c(OCC(N)=O)c(I)c1

>  <canonical_smi>  (85) 
N#Cc1cc(N)c(OCC(N)=O)c(I)c1

>  <Set>  (85) 
G2 inactive

>  <Set_type>  (85) 
Train

>  <MW>  (85) 
317.09

>  <HBD>  (85) 
2

>  <HBA>  (85) 
4

>  <NRB>  (85) 
3

>  <NR>  (85) 
1

>  <NAR>  (85) 
1

>  <PSA>  (85) 
102.13

>  <Standard Type>  (85) 
nan

>  <Standard Relation>  (85) 
nan

>  <Standard Units>  (85) 
nan

>  <Standard Value>  (85) 
nan

>  <Assay ChEMBL ID>  (85) 
nan

>  <Assay Description>  (85) 
nan

>  <BAO Label>  (85) 
nan

>  <bits>  (85) 
<rdkit.DataStructs.cDataStructs.ExplicitBitVect object at 0x000001A37F95A420>

>  <Group>  (85) 
G2

$$$$

     RDKit          2D

 21 23  0  0  0  0  0  0  0  0999 V2000
    5.1828    7.5436    0.0000 N   0  0  0  0  0  0  0  0  0  0  0  0
    3.7156    7.2317    0.0000 C   0  0  0  0  0  0  0  0  0  0  0  0
    3.2521    5.8051    0.0000 C   0  0  0  0  0  0  0  0  0  0  0  0
    1.7849    5.4933    0.0000 C   0  0  0  0  0  0  0  0  0  0  0  0
    1.3213    4.0667    0.0000 N   0  0  0  0  0  0  0  0  0  0  0  0
   -0.1459    3.7548    0.0000 C   0  0  0  0  0  0  0  0  0  0  0  0
   -0.6094    2.3282    0.0000 C   0  0  0  0  0  0  0  0  0  0  0  0
    0.3943    1.2135    0.0000 C   0  0  0  0  0  0  0  0  0  0  0  0
    1.2760    0.0000    0.0000 C   0  0  0  0  0  0  0  0  0  0  0  0
    0.3943   -1.2135    0.0000 C   0  0  0  0  0  0  0  0  0  0  0  0
   -1.0323   -0.7500    0.0000 C   0  0  0  0  0  0  0  0  0  0  0  0
   -1.0323    0.7500    0.0000 C   0  0  0  0  0  0  0  0  0  0  0  0
    1.8615    1.5254    0.0000 C   0  0  0  0  0  0  0  0  0  0  0  0
    2.3250    2.9520    0.0000 C   0  0  0  0  0  0  0  0  0  0  0  0
    0.7812    6.6080    0.0000 C   0  0  0  0  0  0  0  0  0  0  0  0
    1.2447    8.0346    0.0000 C   0  0  0  0  0  0  0  0  0  0  0  0
    0.2410    9.1493    0.0000 S   0  0  0  0  0  0  0  0  0  0  0  0
   -0.7627   10.2640    0.0000 N   0  0  0  0  0  0  0  0  0  0  0  0
    1.3557   10.1530    0.0000 O   0  0  0  0  0  0  0  0  0  0  0  0
   -0.8737    8.1456    0.0000 O   0  0  0  0  0  0  0  0  0  0  0  0
    2.7119    8.3464    0.0000 C   0  0  0  0  0  0  0  0  0  0  0  0
  1  2  1  0
  2  3  2  0
  3  4  1  0
  4  5  1  0
  5  6  1  0
  6  7  1  0
  7  8  1  0
  8  9  1  0
  9 10  1  0
 10 11  1  0
 11 12  1  0
  8 13  1  0
 13 14  1  0
  4 15  2  0
 15 16  1  0
 16 17  1  0
 17 18  1  0
 17 19  2  0
 17 20  2  0
 16 21  2  0
 21  2  1  0
 14  5  1  0
 12  8  1  0
M  END
>  <Compound_ID>  (86) 
C62953430

>  <Active>  (86) 
0

>  <Smiles>  (86) 
Nc1cc(N2CCC3(CCCC3)CC2)cc(S(N)(=O)=O)c1

>  <canonical_smi>  (86) 
Nc1cc(N2CCC3(CCCC3)CC2)cc(S(N)(=O)=O)c1

>  <Set>  (86) 
G2 inactive

>  <Set_type>  (86) 
Train

>  <MW>  (86) 
309.44

>  <HBD>  (86) 
2

>  <HBA>  (86) 
4

>  <NRB>  (86) 
2

>  <NR>  (86) 
3

>  <NAR>  (86) 
1

>  <PSA>  (86) 
89.42

>  <Standard Type>  (86) 
nan

>  <Standard Relation>  (86) 
nan

>  <Standard Units>  (86) 
nan

>  <Standard Value>  (86) 
nan

>  <Assay ChEMBL ID>  (86) 
nan

>  <Assay Description>  (86) 
nan

>  <BAO Label>  (86) 
nan

>  <bits>  (86) 
<rdkit.DataStructs.cDataStructs.ExplicitBitVect object at 0x000001A37F95A2D0>

>  <Group>  (86) 
G2

$$$$

     RDKit          2D

 29 31  0  0  0  0  0  0  0  0999 V2000
   10.2438    2.9279    0.0000 C   0  0  0  0  0  0  0  0  0  0  0  0
    9.3622    1.7144    0.0000 O   0  0  0  0  0  0  0  0  0  0  0  0
    7.8704    1.8712    0.0000 C   0  0  0  0  0  0  0  0  0  0  0  0
    6.9887    0.6576    0.0000 C   0  0  0  0  0  0  0  0  0  0  0  0
    5.4969    0.8144    0.0000 N   0  0  0  0  0  0  0  0  0  0  0  0
    4.6152   -0.3991    0.0000 C   0  0  0  0  0  0  0  0  0  0  0  0
    5.2253   -1.7694    0.0000 O   0  0  0  0  0  0  0  0  0  0  0  0
    3.1235   -0.2423    0.0000 C   0  0  0  0  0  0  0  0  0  0  0  0
    2.2418   -1.4558    0.0000 C   0  0  0  0  0  0  0  0  0  0  0  0
    0.7500   -1.2990    0.0000 C   0  0  0  0  0  0  0  0  0  0  0  0
    1.5000    0.0000    0.0000 C   0  0  0  0  0  0  0  0  0  0  0  0
    0.7500    1.2990    0.0000 C   0  0  0  0  0  0  0  0  0  0  0  0
   -0.7500    1.2990    0.0000 C   0  0  0  0  0  0  0  0  0  0  0  0
   -2.1595    1.8121    0.0000 C   0  0  0  0  0  0  0  0  0  0  0  0
   -0.4895    2.7762    0.0000 O   0  0  0  0  0  0  0  0  0  0  0  0
   -1.5000    0.0000    0.0000 C   0  0  0  0  0  0  0  0  0  0  0  0
   -0.7500   -1.2990    0.0000 C   0  0  0  0  0  0  0  0  0  0  0  0
   -1.2135   -2.7256    0.0000 C   0  0  0  0  0  0  0  0  0  0  0  0
   -2.5838   -2.1155    0.0000 C   0  0  0  0  0  0  0  0  0  0  0  0
   -1.9635   -4.0247    0.0000 C   0  0  0  0  0  0  0  0  0  0  0  0
    0.0000   -3.6073    0.0000 C   0  0  0  0  0  0  0  0  0  0  0  0
    1.2135   -2.7256    0.0000 C   0  0  0  0  0  0  0  0  0  0  0  0
    2.6401   -3.1891    0.0000 N   0  0  0  0  0  4  0  0  0  0  0  0
    2.9520   -4.6564    0.0000 C   0  0  0  0  0  0  0  0  0  0  0  0
    1.8373   -5.6601    0.0000 C   0  0  0  0  0  0  0  0  0  0  0  0
    2.1491   -7.1273    0.0000 C   0  0  0  0  0  0  0  0  0  0  0  0
    3.5757   -7.5908    0.0000 O   0  0  0  0  0  0  0  0  0  0  0  0
    4.6904   -6.5871    0.0000 C   0  0  0  0  0  0  0  0  0  0  0  0
    4.3786   -5.1199    0.0000 C   0  0  0  0  0  0  0  0  0  0  0  0
  1  2  1  0
  2  3  1  0
  3  4  1  0
  4  5  1  0
  5  6  1  0
  6  7  2  0
  6  8  1  0
  8  9  1  0
 10  9  1  6
 10 11  1  0
 11 12  1  0
 12 13  1  0
 13 14  1  6
 13 15  1  0
 13 16  1  0
 17 16  1  6
 17 18  1  0
 18 19  1  0
 18 20  1  0
 18 21  1  0
 21 22  1  0
 22 23  1  1
 23 24  1  0
 24 25  1  0
 25 26  1  0
 26 27  1  0
 27 28  1  0
 28 29  1  0
 17 10  1  0
 29 24  1  0
 22 10  1  0
M  CHG  1  23   1
M  END
>  <Compound_ID>  (87) 
C43547990

>  <Active>  (87) 
0

>  <Smiles>  (87) 
COCCNC(=O)CC[C@@]12CC[C@](C)(O)C[C@H]1C(C)(C)C[C@@H]2[NH2+]C1CCOCC1

>  <canonical_smi>  (87) 
COCCNC(=O)CC[C@@]12CC[C@](C)(O)C[C@H]1C(C)(C)C[C@@H]2[NH2+]C1CCOCC1

>  <Set>  (87) 
G2 inactive

>  <Set_type>  (87) 
Train

>  <MW>  (87) 
411.61

>  <HBD>  (87) 
3

>  <HBA>  (87) 
4

>  <NRB>  (87) 
8

>  <NR>  (87) 
3

>  <NAR>  (87) 
0

>  <PSA>  (87) 
84.4

>  <Standard Type>  (87) 
nan

>  <Standard Relation>  (87) 
nan

>  <Standard Units>  (87) 
nan

>  <Standard Value>  (87) 
nan

>  <Assay ChEMBL ID>  (87) 
nan

>  <Assay Description>  (87) 
nan

>  <BAO Label>  (87) 
nan

>  <bits>  (87) 
<rdkit.DataStructs.cDataStructs.ExplicitBitVect object at 0x000001A37F95A180>

>  <Group>  (87) 
G2

$$$$

     RDKit          2D

 14 15  0  0  0  0  0  0  0  0999 V2000
    3.0000    0.0000    0.0000 N   0  0  0  0  0  0  0  0  0  0  0  0
    1.5000    0.0000    0.0000 C   0  0  0  0  0  0  0  0  0  0  0  0
    0.7500   -1.2990    0.0000 C   0  0  0  0  0  0  0  0  0  0  0  0
   -0.7500   -1.2990    0.0000 N   0  0  0  0  0  4  0  0  0  0  0  0
   -1.5000    0.0000    0.0000 C   0  0  0  0  0  0  0  0  0  0  0  0
   -0.7500    1.2990    0.0000 C   0  0  0  0  0  0  0  0  0  0  0  0
    0.7500    1.2990    0.0000 C   0  0  0  0  0  0  0  0  0  0  0  0
    1.5000    2.5981    0.0000 N   0  0  0  0  0  0  0  0  0  0  0  0
    0.7500    3.8971    0.0000 C   0  0  0  0  0  0  0  0  0  0  0  0
    1.5000    5.1962    0.0000 C   0  0  0  0  0  0  0  0  0  0  0  0
    0.8899    6.5665    0.0000 C   0  0  0  0  0  0  0  0  0  0  0  0
    2.0046    7.5702    0.0000 C   0  0  0  0  0  0  0  0  0  0  0  0
    3.3037    6.8202    0.0000 S   0  0  0  0  0  0  0  0  0  0  0  0
    2.9918    5.3529    0.0000 C   0  0  0  0  0  0  0  0  0  0  0  0
  1  2  1  0
  2  3  2  0
  3  4  1  0
  4  5  2  0
  5  6  1  0
  6  7  2  0
  7  8  1  0
  8  9  1  0
  9 10  1  0
 10 11  1  0
 11 12  2  0
 12 13  1  0
 13 14  1  0
  7  2  1  0
 14 10  2  0
M  CHG  1   4   1
M  END
>  <Compound_ID>  (88) 
C63152764

>  <Active>  (88) 
0

>  <Smiles>  (88) 
Nc1c[nH+]ccc1NCc1ccsc1

>  <canonical_smi>  (88) 
Nc1c[nH+]ccc1NCc1ccsc1

>  <Set>  (88) 
G2 inactive

>  <Set_type>  (88) 
Train

>  <MW>  (88) 
206.29

>  <HBD>  (88) 
2

>  <HBA>  (88) 
2

>  <NRB>  (88) 
3

>  <NR>  (88) 
2

>  <NAR>  (88) 
2

>  <PSA>  (88) 
52.19

>  <Standard Type>  (88) 
nan

>  <Standard Relation>  (88) 
nan

>  <Standard Units>  (88) 
nan

>  <Standard Value>  (88) 
nan

>  <Assay ChEMBL ID>  (88) 
nan

>  <Assay Description>  (88) 
nan

>  <BAO Label>  (88) 
nan

>  <bits>  (88) 
<rdkit.DataStructs.cDataStructs.ExplicitBitVect object at 0x000001A37F959EE0>

>  <Group>  (88) 
G2

$$$$

     RDKit          2D

 16 18  0  0  0  0  0  0  0  0999 V2000
    3.5260   -1.2990    0.0000 O   0  0  0  0  0  0  0  0  0  0  0  0
    2.7760    0.0000    0.0000 C   0  0  0  0  0  0  0  0  0  0  0  0
    3.5260    1.2990    0.0000 O   0  0  0  0  0  1  0  0  0  0  0  0
    1.2760    0.0000    0.0000 C   0  0  0  0  0  0  0  0  0  0  0  0
    0.3943    1.2135    0.0000 C   0  0  0  0  0  0  0  0  0  0  0  0
   -1.0323    0.7500    0.0000 S   0  0  0  0  0  0  0  0  0  0  0  0
   -1.0323   -0.7500    0.0000 C   0  0  0  0  0  0  0  0  0  0  0  0
    0.3943   -1.2135    0.0000 N   0  0  0  0  0  4  0  0  0  0  0  0
   -2.4026   -0.1399    0.0000 C   0  0  0  0  0  0  0  0  0  0  0  0
   -3.6161   -1.0216    0.0000 C   0  0  0  0  0  0  0  0  0  0  0  0
   -3.4593   -2.5134    0.0000 C   0  0  0  0  0  0  0  0  0  0  0  0
   -2.0890   -3.1235    0.0000 C   0  0  0  0  0  0  0  0  0  0  0  0
   -0.8755   -2.2418    0.0000 C   0  0  0  0  0  0  0  0  0  0  0  0
   -1.6976   -2.0362    0.0000 C   0  0  0  0  0  0  0  0  0  0  0  0
   -1.5177   -1.1027    0.0000 N   0  0  0  0  0  4  0  0  0  0  0  0
   -2.4611   -0.9853    0.0000 C   0  0  0  0  0  0  0  0  0  0  0  0
  1  2  2  0
  2  3  1  0
  4  2  1  1
  4  5  1  0
  5  6  1  0
  6  7  1  0
  7  8  1  0
  7  9  1  0
  9 10  1  1
 10 11  1  0
 11 12  1  0
 13 12  1  1
 13 14  1  0
 14 15  1  0
 15 16  1  0
  8  4  1  0
 16  9  1  0
 13  7  1  0
M  CHG  3   3  -1   8   1  15   1
M  END
>  <Compound_ID>  (89) 
C13999875

>  <Active>  (89) 
0

>  <Smiles>  (89) 
O=C([O-])[C@@H]1CSC2([NH2+]1)[C@@H]1CCC[C@H]2C[NH2+]C1

>  <canonical_smi>  (89) 
O=C([O-])[C@@H]1CSC2([NH2+]1)[C@H]1CCC[C@@H]2C[NH2+]C1

>  <Set>  (89) 
G2 inactive

>  <Set_type>  (89) 
Train

>  <MW>  (89) 
243.35

>  <HBD>  (89) 
2

>  <HBA>  (89) 
3

>  <NRB>  (89) 
1

>  <NR>  (89) 
3

>  <NAR>  (89) 
0

>  <PSA>  (89) 
73.35

>  <Standard Type>  (89) 
nan

>  <Standard Relation>  (89) 
nan

>  <Standard Units>  (89) 
nan

>  <Standard Value>  (89) 
nan

>  <Assay ChEMBL ID>  (89) 
nan

>  <Assay Description>  (89) 
nan

>  <BAO Label>  (89) 
nan

>  <bits>  (89) 
<rdkit.DataStructs.cDataStructs.ExplicitBitVect object at 0x000001A37F959E00>

>  <Group>  (89) 
G2

$$$$

     RDKit          2D

 15 16  0  0  0  0  0  0  0  0999 V2000
   -6.0000   -5.1962    0.0000 N   0  0  0  0  0  4  0  0  0  0  0  0
   -5.2500   -3.8971    0.0000 C   0  0  0  0  0  0  0  0  0  0  0  0
   -3.7500   -3.8971    0.0000 C   0  0  0  0  0  0  0  0  0  0  0  0
   -3.0000   -5.1962    0.0000 O   0  0  0  0  0  0  0  0  0  0  0  0
   -3.0000   -2.5981    0.0000 C   0  0  0  0  0  0  0  0  0  0  0  0
   -1.5000   -2.5981    0.0000 N   0  0  0  0  0  0  0  0  0  0  0  0
   -0.7500   -3.8971    0.0000 C   0  0  0  0  0  0  0  0  0  0  0  0
    0.7500   -3.8971    0.0000 C   0  0  0  0  0  0  0  0  0  0  0  0
    1.5000   -2.5981    0.0000 O   0  0  0  0  0  0  0  0  0  0  0  0
    0.7500   -1.2990    0.0000 C   0  0  0  0  0  0  0  0  0  0  0  0
    1.5000    0.0000    0.0000 C   0  0  0  0  0  0  0  0  0  0  0  0
    0.7500    1.2990    0.0000 C   0  0  0  0  0  0  0  0  0  0  0  0
   -0.7500    1.2990    0.0000 C   0  0  0  0  0  0  0  0  0  0  0  0
   -1.5000    0.0000    0.0000 C   0  0  0  0  0  0  0  0  0  0  0  0
   -0.7500   -1.2990    0.0000 C   0  0  0  0  0  0  0  0  0  0  0  0
  1  2  1  0
  2  3  1  0
  3  4  1  6
  3  5  1  0
  5  6  1  0
  6  7  1  0
  7  8  1  0
  8  9  1  0
  9 10  1  0
 10 11  1  6
 11 12  1  0
 12 13  1  0
 13 14  1  0
 15 14  1  6
 15  6  1  0
 15 10  1  0
M  CHG  1   1   1
M  END
>  <Compound_ID>  (90) 
C43425014

>  <Active>  (90) 
0

>  <Smiles>  (90) 
[NH3+]C[C@@H](O)CN1CCO[C@H]2CCCC[C@H]21

>  <canonical_smi>  (90) 
[NH3+]C[C@@H](O)CN1CCO[C@H]2CCCC[C@H]21

>  <Set>  (90) 
G2 inactive

>  <Set_type>  (90) 
Train

>  <MW>  (90) 
215.32

>  <HBD>  (90) 
2

>  <HBA>  (90) 
3

>  <NRB>  (90) 
3

>  <NR>  (90) 
2

>  <NAR>  (90) 
0

>  <PSA>  (90) 
60.34

>  <Standard Type>  (90) 
nan

>  <Standard Relation>  (90) 
nan

>  <Standard Units>  (90) 
nan

>  <Standard Value>  (90) 
nan

>  <Assay ChEMBL ID>  (90) 
nan

>  <Assay Description>  (90) 
nan

>  <BAO Label>  (90) 
nan

>  <bits>  (90) 
<rdkit.DataStructs.cDataStructs.ExplicitBitVect object at 0x000001A37F959CB0>

>  <Group>  (90) 
G2

$$$$

     RDKit          2D

 17 18  0  0  0  0  0  0  0  0999 V2000
    3.0000    0.0000    0.0000 C   0  0  0  0  0  0  0  0  0  0  0  0
    1.5000    0.0000    0.0000 C   0  0  0  0  0  0  0  0  0  0  0  0
    0.7500   -1.2990    0.0000 C   0  0  0  0  0  0  0  0  0  0  0  0
   -0.7500   -1.2990    0.0000 C   0  0  0  0  0  0  0  0  0  0  0  0
   -1.5000    0.0000    0.0000 C   0  0  0  0  0  0  0  0  0  0  0  0
   -0.7500    1.2990    0.0000 C   0  0  0  0  0  0  0  0  0  0  0  0
   -1.5000    2.5981    0.0000 C   0  0  0  0  0  0  0  0  0  0  0  0
   -3.0000    2.5981    0.0000 O   0  0  0  0  0  0  0  0  0  0  0  0
   -0.7500    3.8971    0.0000 N   0  0  0  0  0  0  0  0  0  0  0  0
    0.7500    3.8971    0.0000 C   0  0  0  0  0  0  0  0  0  0  0  0
    1.5000    5.1962    0.0000 C   0  0  0  0  0  0  0  0  0  0  0  0
    0.7500    6.4952    0.0000 C   0  0  0  0  0  0  0  0  0  0  0  0
   -0.7500    6.4952    0.0000 C   0  0  0  0  0  0  0  0  0  0  0  0
   -1.5000    7.7942    0.0000 O   0  0  0  0  0  0  0  0  0  0  0  0
   -1.5000    5.1962    0.0000 C   0  0  0  0  0  0  0  0  0  0  0  0
    0.7500    1.2990    0.0000 C   0  0  0  0  0  0  0  0  0  0  0  0
    1.5000    2.5981    0.0000 N   0  0  0  0  0  4  0  0  0  0  0  0
  2  1  1  6
  2  3  1  0
  3  4  1  0
  4  5  1  0
  5  6  1  0
  6  7  1  1
  7  8  2  0
  7  9  1  0
  9 10  1  0
 10 11  1  0
 11 12  1  0
 12 13  1  0
 13 14  1  1
 13 15  1  0
  6 16  1  0
 16 17  1  6
 16  2  1  0
 15  9  1  0
M  CHG  1  17   1
M  END
>  <Compound_ID>  (91) 
C55127321

>  <Active>  (91) 
0

>  <Smiles>  (91) 
C[C@@H]1CCC[C@@H](C(=O)N2CCC[C@H](O)C2)[C@@H]1[NH3+]

>  <canonical_smi>  (91) 
C[C@@H]1CCC[C@@H](C(=O)N2CCC[C@H](O)C2)[C@@H]1[NH3+]

>  <Set>  (91) 
G2 inactive

>  <Set_type>  (91) 
Train

>  <MW>  (91) 
241.35

>  <HBD>  (91) 
2

>  <HBA>  (91) 
2

>  <NRB>  (91) 
1

>  <NR>  (91) 
2

>  <NAR>  (91) 
0

>  <PSA>  (91) 
68.18

>  <Standard Type>  (91) 
nan

>  <Standard Relation>  (91) 
nan

>  <Standard Units>  (91) 
nan

>  <Standard Value>  (91) 
nan

>  <Assay ChEMBL ID>  (91) 
nan

>  <Assay Description>  (91) 
nan

>  <BAO Label>  (91) 
nan

>  <bits>  (91) 
<rdkit.DataStructs.cDataStructs.ExplicitBitVect object at 0x000001A37F959C40>

>  <Group>  (91) 
G2

$$$$

     RDKit          2D

 16 16  0  0  0  0  0  0  0  0999 V2000
    8.2500   -3.8971    0.0000 C   0  0  0  0  0  0  0  0  0  0  0  0
    7.5000   -2.5981    0.0000 N   0  0  0  0  0  0  0  0  0  0  0  0
    6.0000   -2.5981    0.0000 C   0  0  0  0  0  0  0  0  0  0  0  0
    5.2500   -3.8971    0.0000 O   0  0  0  0  0  0  0  0  0  0  0  0
    5.2500   -1.2990    0.0000 N   0  0  0  0  0  0  0  0  0  0  0  0
    3.7500   -1.2990    0.0000 C   0  0  0  0  0  0  0  0  0  0  0  0
    3.0000   -2.5981    0.0000 O   0  0  0  0  0  0  0  0  0  0  0  0
    3.0000    0.0000    0.0000 C   0  0  0  0  0  0  0  0  0  0  0  0
    1.5000    0.0000    0.0000 N   0  0  0  0  0  4  0  0  0  0  0  0
    0.7500   -1.2990    0.0000 C   0  0  0  0  0  0  0  0  0  0  0  0
   -0.7500   -1.2990    0.0000 C   0  0  0  0  0  0  0  0  0  0  0  0
   -1.5000    0.0000    0.0000 C   0  0  0  0  0  0  0  0  0  0  0  0
   -3.0000    0.0000    0.0000 C   0  0  0  0  0  0  0  0  0  0  0  0
   -3.7500    1.2990    0.0000 O   0  0  0  0  0  0  0  0  0  0  0  0
   -0.7500    1.2990    0.0000 C   0  0  0  0  0  0  0  0  0  0  0  0
    0.7500    1.2990    0.0000 C   0  0  0  0  0  0  0  0  0  0  0  0
  1  2  1  0
  2  3  1  0
  3  4  2  0
  3  5  1  0
  5  6  1  0
  6  7  2  0
  6  8  1  0
  8  9  1  0
  9 10  1  0
 10 11  1  0
 11 12  1  0
 12 13  1  0
 13 14  1  0
 12 15  1  0
 15 16  1  0
 16  9  1  0
M  CHG  1   9   1
M  END
>  <Compound_ID>  (92) 
C48347270

>  <Active>  (92) 
0

>  <Smiles>  (92) 
CNC(=O)NC(=O)C[NH+]1CCC(CO)CC1

>  <canonical_smi>  (92) 
CNC(=O)NC(=O)C[NH+]1CCC(CO)CC1

>  <Set>  (92) 
G2 inactive

>  <Set_type>  (92) 
Train

>  <MW>  (92) 
230.29

>  <HBD>  (92) 
4

>  <HBA>  (92) 
3

>  <NRB>  (92) 
3

>  <NR>  (92) 
1

>  <NAR>  (92) 
0

>  <PSA>  (92) 
82.87

>  <Standard Type>  (92) 
nan

>  <Standard Relation>  (92) 
nan

>  <Standard Units>  (92) 
nan

>  <Standard Value>  (92) 
nan

>  <Assay ChEMBL ID>  (92) 
nan

>  <Assay Description>  (92) 
nan

>  <BAO Label>  (92) 
nan

>  <bits>  (92) 
<rdkit.DataStructs.cDataStructs.ExplicitBitVect object at 0x000001A37F959BD0>

>  <Group>  (92) 
G2

$$$$

     RDKit          2D

 18 20  0  0  0  0  0  0  0  0999 V2000
    3.0000    0.0000    0.0000 O   0  0  0  0  0  0  0  0  0  0  0  0
    1.5000    0.0000    0.0000 C   0  0  0  0  0  0  0  0  0  0  0  0
    0.7500    1.2990    0.0000 N   0  0  0  0  0  0  0  0  0  0  0  0
   -0.7500    1.2990    0.0000 N   0  0  0  0  0  0  0  0  0  0  0  0
   -1.5000    0.0000    0.0000 C   0  0  0  0  0  0  0  0  0  0  0  0
   -3.0000    0.0000    0.0000 N   0  0  0  0  0  0  0  0  0  0  0  0
   -3.8817   -1.2135    0.0000 C   0  0  0  0  0  0  0  0  0  0  0  0
   -5.3083   -0.7500    0.0000 C   0  0  0  0  0  0  0  0  0  0  0  0
   -5.3083    0.7500    0.0000 C   0  0  0  0  0  0  0  0  0  0  0  0
   -3.8817    1.2135    0.0000 C   0  0  0  0  0  0  0  0  0  0  0  0
   -3.4182    2.6401    0.0000 C   0  0  0  0  0  0  0  0  0  0  0  0
   -4.2998    3.8536    0.0000 C   0  0  0  0  0  0  0  0  0  0  0  0
   -3.4182    5.0672    0.0000 C   0  0  0  0  0  0  0  0  0  0  0  0
   -1.9916    4.6036    0.0000 C   0  0  0  0  0  0  0  0  0  0  0  0
   -1.9916    3.1036    0.0000 N   0  0  0  0  0  4  0  0  0  0  0  0
   -0.7500   -1.2990    0.0000 C   0  0  0  0  0  0  0  0  0  0  0  0
   -1.5000   -2.5981    0.0000 O   0  0  0  0  0  0  0  0  0  0  0  0
    0.7500   -1.2990    0.0000 N   0  0  0  0  0  0  0  0  0  0  0  0
  1  2  2  0
  2  3  1  0
  3  4  1  0
  4  5  2  0
  5  6  1  0
  6  7  1  0
  7  8  1  0
  8  9  1  0
 10  9  1  1
 10 11  1  0
 11 12  1  6
 12 13  1  0
 13 14  1  0
 14 15  1  0
  5 16  1  0
 16 17  2  0
 16 18  1  0
 18  2  1  0
 10  6  1  0
 15 11  1  0
M  CHG  1  15   1
M  END
>  <Compound_ID>  (93) 
C51360541

>  <Active>  (93) 
0

>  <Smiles>  (93) 
O=c1[nH]nc(N2CCC[C@H]2[C@@H]2CCC[NH2+]2)c(=O)[nH]1

>  <canonical_smi>  (93) 
O=c1[nH]nc(N2CCC[C@H]2[C@@H]2CCC[NH2+]2)c(=O)[nH]1

>  <Set>  (93) 
G2 inactive

>  <Set_type>  (93) 
Train

>  <MW>  (93) 
252.3

>  <HBD>  (93) 
3

>  <HBA>  (93) 
4

>  <NRB>  (93) 
2

>  <NR>  (93) 
3

>  <NAR>  (93) 
1

>  <PSA>  (93) 
98.46

>  <Standard Type>  (93) 
nan

>  <Standard Relation>  (93) 
nan

>  <Standard Units>  (93) 
nan

>  <Standard Value>  (93) 
nan

>  <Assay ChEMBL ID>  (93) 
nan

>  <Assay Description>  (93) 
nan

>  <BAO Label>  (93) 
nan

>  <bits>  (93) 
<rdkit.DataStructs.cDataStructs.ExplicitBitVect object at 0x000001A37F959B60>

>  <Group>  (93) 
G2

$$$$

     RDKit          2D

 33 35  0  0  0  0  0  0  0  0999 V2000
    4.5000    0.0000    0.0000 N   0  0  0  0  0  0  0  0  0  0  0  0
    3.0000    0.0000    0.0000 C   0  0  0  0  0  0  0  0  0  0  0  0
    1.5000    0.0000    0.0000 C   0  0  0  0  0  0  0  0  0  0  0  0
    0.7500   -1.2990    0.0000 C   0  0  0  0  0  0  0  0  0  0  0  0
   -0.7500   -1.2990    0.0000 C   0  0  0  0  0  0  0  0  0  0  0  0
   -1.5000    0.0000    0.0000 C   0  0  0  0  0  0  0  0  0  0  0  0
   -3.0000    0.0000    0.0000 N   0  0  0  0  0  0  0  0  0  0  0  0
   -3.7500    1.2990    0.0000 C   0  0  0  0  0  0  0  0  0  0  0  0
   -5.2500    1.2990    0.0000 C   0  0  0  0  0  0  0  0  0  0  0  0
   -5.2500    2.7990    0.0000 F   0  0  0  0  0  0  0  0  0  0  0  0
   -5.2500   -0.2010    0.0000 F   0  0  0  0  0  0  0  0  0  0  0  0
   -6.7500    1.2990    0.0000 C   0  0  0  0  0  0  0  0  0  0  0  0
   -7.5000    2.5981    0.0000 C   0  0  0  0  0  0  0  0  0  0  0  0
   -9.0000    2.5981    0.0000 C   0  0  0  0  0  0  0  0  0  0  0  0
   -9.7500    1.2990    0.0000 C   0  0  0  0  0  0  0  0  0  0  0  0
   -9.0000    0.0000    0.0000 C   0  0  0  0  0  0  0  0  0  0  0  0
   -7.5000    0.0000    0.0000 N   0  0  0  0  0  0  0  0  0  0  0  0
   -0.7500    1.2990    0.0000 N   0  0  0  0  0  4  0  0  0  0  0  0
   -1.5000    2.5981    0.0000 O   0  0  0  0  0  1  0  0  0  0  0  0
    0.7500    1.2990    0.0000 C   0  0  0  0  0  0  0  0  0  0  0  0
    1.5000    2.5981    0.0000 C   0  0  0  0  0  0  0  0  0  0  0  0
    0.7500    3.8971    0.0000 C   0  0  0  0  0  0  0  0  0  0  0  0
   -0.7500    3.8971    0.0000 O   0  0  0  0  0  0  0  0  0  0  0  0
    1.5000    5.1962    0.0000 N   0  0  0  0  0  0  0  0  0  0  0  0
    0.7500    6.4952    0.0000 C   0  0  0  0  0  0  0  0  0  0  0  0
    1.5000    7.7942    0.0000 C   0  0  0  0  0  0  0  0  0  0  0  0
    3.0000    7.7942    0.0000 C   0  0  0  0  0  0  0  0  0  0  0  0
    3.7500    9.0933    0.0000 C   0  0  0  0  0  0  0  0  0  0  0  0
    3.0000   10.3923    0.0000 C   0  0  0  0  0  0  0  0  0  0  0  0
    1.5000   10.3923    0.0000 C   0  0  0  0  0  0  0  0  0  0  0  0
    0.7500    9.0933    0.0000 C   0  0  0  0  0  0  0  0  0  0  0  0
   -0.7500    9.0933    0.0000 C   0  0  0  0  0  0  0  0  0  0  0  0
   -1.5000   10.3923    0.0000 N   0  0  0  0  0  4  0  0  0  0  0  0
  1  2  3  0
  2  3  1  0
  3  4  2  0
  4  5  1  0
  5  6  2  0
  6  7  1  0
  7  8  1  0
  8  9  1  0
  9 10  1  0
  9 11  1  0
  9 12  1  0
 12 13  2  0
 13 14  1  0
 14 15  2  0
 15 16  1  0
 16 17  2  0
  6 18  1  0
 18 19  1  0
 18 20  2  0
 20 21  1  0
 21 22  1  0
 22 23  1  6
 22 24  1  0
 24 25  1  0
 25 26  1  0
 26 27  2  0
 27 28  1  0
 28 29  2  0
 29 30  1  0
 30 31  2  0
 31 32  1  0
 32 33  1  0
 20  3  1  0
 31 26  1  0
 17 12  1  0
M  CHG  3  18   1  19  -1  33   1
M  END
>  <Compound_ID>  (94) 
C28525091

>  <Active>  (94) 
0

>  <Smiles>  (94) 
N#Cc1ccc(NCC(F)(F)c2ccccn2)[n+]([O-])c1C[C@H](O)NCc1ccccc1C[NH3+]

>  <canonical_smi>  (94) 
N#Cc1ccc(NCC(F)(F)c2ccccn2)[n+]([O-])c1C[C@H](O)NCc1ccccc1C[NH3+]

>  <Set>  (94) 
G2 inactive

>  <Set_type>  (94) 
Train

>  <MW>  (94) 
455.49

>  <HBD>  (94) 
4

>  <HBA>  (94) 
6

>  <NRB>  (94) 
10

>  <NR>  (94) 
3

>  <NAR>  (94) 
3

>  <PSA>  (94) 
135.55

>  <Standard Type>  (94) 
nan

>  <Standard Relation>  (94) 
nan

>  <Standard Units>  (94) 
nan

>  <Standard Value>  (94) 
nan

>  <Assay ChEMBL ID>  (94) 
nan

>  <Assay Description>  (94) 
nan

>  <BAO Label>  (94) 
nan

>  <bits>  (94) 
<rdkit.DataStructs.cDataStructs.ExplicitBitVect object at 0x000001A37F959A10>

>  <Group>  (94) 
G2

$$$$

     RDKit          2D

 26 27  0  0  0  0  0  0  0  0999 V2000
   -0.8113  -11.2427    0.0000 C   0  0  0  0  0  0  0  0  0  0  0  0
    0.4022  -10.3610    0.0000 C   0  0  0  0  0  0  0  0  0  0  0  0
    0.2454   -8.8692    0.0000 C   0  0  0  0  0  0  0  0  0  0  0  0
    1.3601   -7.8655    0.0000 C   0  0  0  0  0  0  0  0  0  0  0  0
    0.7500   -6.4952    0.0000 C   0  0  0  0  0  0  0  0  0  0  0  0
    1.5000   -5.1962    0.0000 C   0  0  0  0  0  0  0  0  0  0  0  0
    3.0000   -5.1962    0.0000 O   0  0  0  0  0  0  0  0  0  0  0  0
    0.7500   -3.8971    0.0000 N   0  0  0  0  0  0  0  0  0  0  0  0
    1.5000   -2.5981    0.0000 C   0  0  0  0  0  0  0  0  0  0  0  0
    0.7500   -1.2990    0.0000 C   0  0  0  0  0  0  0  0  0  0  0  0
    1.5000    0.0000    0.0000 O   0  0  0  0  0  0  0  0  0  0  0  0
    0.7500    1.2990    0.0000 C   0  0  0  0  0  0  0  0  0  0  0  0
    1.5000    2.5981    0.0000 S   0  0  0  0  0  0  0  0  0  0  0  0
    3.0000    2.5981    0.0000 C   0  0  0  0  0  0  0  0  0  0  0  0
   -0.7500    1.2990    0.0000 C   0  0  0  0  0  0  0  0  0  0  0  0
   -1.5000    2.5981    0.0000 O   0  0  0  0  0  0  0  0  0  0  0  0
   -1.5000    0.0000    0.0000 C   0  0  0  0  0  0  0  0  0  0  0  0
   -3.0000    0.0000    0.0000 O   0  0  0  0  0  0  0  0  0  0  0  0
   -0.7500   -1.2990    0.0000 C   0  0  0  0  0  0  0  0  0  0  0  0
   -1.5000   -2.5981    0.0000 O   0  0  0  0  0  0  0  0  0  0  0  0
    3.0000   -2.5981    0.0000 C   0  0  0  0  0  0  0  0  0  0  0  0
    3.7500   -3.8971    0.0000 C   0  0  0  0  0  0  0  0  0  0  0  0
    3.7500   -1.2990    0.0000 Cl  0  0  0  0  0  0  0  0  0  0  0  0
   -0.7418   -6.6520    0.0000 N   0  0  0  0  0  4  0  0  0  0  0  0
   -1.7455   -5.5373    0.0000 C   0  0  0  0  0  0  0  0  0  0  0  0
   -1.0537   -8.1192    0.0000 C   0  0  0  0  0  0  0  0  0  0  0  0
  1  2  1  0
  3  2  1  6
  3  4  1  0
  4  5  1  0
  5  6  1  6
  6  7  2  0
  6  8  1  0
  9  8  1  1
  9 10  1  0
 10 11  1  6
 11 12  1  0
 12 13  1  6
 13 14  1  0
 12 15  1  0
 15 16  1  6
 15 17  1  0
 17 18  1  6
 17 19  1  0
 19 20  1  6
  9 21  1  0
 21 22  1  6
 21 23  1  0
  5 24  1  0
 24 25  1  0
 24 26  1  0
 26  3  1  0
 19 10  1  0
M  CHG  1  24   1
M  END
>  <Compound_ID>  (95) 
C65739441

>  <Active>  (95) 
0

>  <Smiles>  (95) 
CC[C@H]1C[C@@H](C(=O)N[C@@H]([C@H]2O[C@@H](SC)[C@@H](O)[C@@H](O)[C@H]2O)[C@@H](C)Cl)[NH+](C)C1

>  <canonical_smi>  (95) 
CC[C@H]1C[C@@H](C(=O)N[C@H]([C@@H](C)Cl)[C@H]2O[C@@H](SC)[C@@H](O)[C@@H](O)[C@H]2O)[NH+](C)C1

>  <Set>  (95) 
G2 inactive

>  <Set_type>  (95) 
Train

>  <MW>  (95) 
411.97

>  <HBD>  (95) 
5

>  <HBA>  (95) 
6

>  <NRB>  (95) 
6

>  <NR>  (95) 
2

>  <NAR>  (95) 
0

>  <PSA>  (95) 
103.46

>  <Standard Type>  (95) 
nan

>  <Standard Relation>  (95) 
nan

>  <Standard Units>  (95) 
nan

>  <Standard Value>  (95) 
nan

>  <Assay ChEMBL ID>  (95) 
nan

>  <Assay Description>  (95) 
nan

>  <BAO Label>  (95) 
nan

>  <bits>  (95) 
<rdkit.DataStructs.cDataStructs.ExplicitBitVect object at 0x000001A37F959690>

>  <Group>  (95) 
G2

$$$$

     RDKit          2D

 28 31  0  0  0  0  0  0  0  0999 V2000
    7.7304    2.7729    0.0000 N   0  0  0  0  0  0  0  0  0  0  0  0
    6.7267    3.8876    0.0000 C   0  0  0  0  0  0  0  0  0  0  0  0
    7.1902    5.3142    0.0000 N   0  0  0  0  0  4  0  0  0  0  0  0
    5.2595    3.5757    0.0000 C   0  0  0  0  0  0  0  0  0  0  0  0
    4.7960    2.1491    0.0000 C   0  0  0  0  0  0  0  0  0  0  0  0
    3.3287    1.8373    0.0000 C   0  0  0  0  0  0  0  0  0  0  0  0
    2.3250    2.9520    0.0000 C   0  0  0  0  0  0  0  0  0  0  0  0
    0.8578    2.6401    0.0000 O   0  0  0  0  0  0  0  0  0  0  0  0
    0.3943    1.2135    0.0000 C   0  0  0  0  0  0  0  0  0  0  0  0
    1.2760    0.0000    0.0000 C   0  0  0  0  0  0  0  0  0  0  0  0
    0.3943   -1.2135    0.0000 O   0  0  0  0  0  0  0  0  0  0  0  0
   -1.0323   -0.7500    0.0000 C   0  0  0  0  0  0  0  0  0  0  0  0
   -1.0323    0.7500    0.0000 C   0  0  0  0  0  0  0  0  0  0  0  0
   -2.4589    1.2135    0.0000 O   0  0  0  0  0  0  0  0  0  0  0  0
   -3.3405    0.0000    0.0000 C   0  0  0  0  0  0  0  0  0  0  0  0
   -2.4589   -1.2135    0.0000 C   0  0  0  0  0  0  0  0  0  0  0  0
   -2.9224   -2.6401    0.0000 O   0  0  0  0  0  0  0  0  0  0  0  0
   -4.3896   -2.9520    0.0000 C   0  0  0  0  0  0  0  0  0  0  0  0
   -5.3933   -1.8373    0.0000 C   0  0  0  0  0  0  0  0  0  0  0  0
   -6.8605   -2.1491    0.0000 C   0  0  0  0  0  0  0  0  0  0  0  0
   -7.3241   -3.5757    0.0000 C   0  0  0  0  0  0  0  0  0  0  0  0
   -8.7913   -3.8876    0.0000 C   0  0  0  0  0  0  0  0  0  0  0  0
   -9.7950   -2.7729    0.0000 N   0  0  0  0  0  0  0  0  0  0  0  0
   -9.2548   -5.3142    0.0000 N   0  0  0  0  0  4  0  0  0  0  0  0
   -6.3204   -4.6904    0.0000 C   0  0  0  0  0  0  0  0  0  0  0  0
   -4.8531   -4.3786    0.0000 C   0  0  0  0  0  0  0  0  0  0  0  0
    2.7886    4.3786    0.0000 C   0  0  0  0  0  0  0  0  0  0  0  0
    4.2558    4.6904    0.0000 C   0  0  0  0  0  0  0  0  0  0  0  0
  1  2  1  0
  2  3  2  0
  2  4  1  0
  4  5  2  0
  5  6  1  0
  6  7  2  0
  7  8  1  0
  9  8  1  1
  9 10  1  0
 10 11  1  0
 12 11  1  6
 12 13  1  0
 13 14  1  6
 14 15  1  0
 15 16  1  0
 16 17  1  6
 17 18  1  0
 18 19  2  0
 19 20  1  0
 20 21  2  0
 21 22  1  0
 22 23  1  0
 22 24  2  0
 21 25  1  0
 25 26  2  0
  7 27  1  0
 27 28  2  0
 28  4  1  0
 13  9  1  0
 26 18  1  0
 16 12  1  0
M  CHG  2   3   1  24   1
M  END
>  <Compound_ID>  (96) 
C12504513

>  <Active>  (96) 
0

>  <Smiles>  (96) 
NC(=[NH2+])c1ccc(O[C@H]2CO[C@H]3[C@@H]2OC[C@H]3Oc2ccc(C(N)=[NH2+])cc2)cc1

>  <canonical_smi>  (96) 
NC(=[NH2+])c1ccc(O[C@H]2CO[C@@H]3[C@H](Oc4ccc(C(N)=[NH2+])cc4)CO[C@H]23)cc1

>  <Set>  (96) 
G2 inactive

>  <Set_type>  (96) 
Train

>  <MW>  (96) 
384.44

>  <HBD>  (96) 
4

>  <HBA>  (96) 
6

>  <NRB>  (96) 
6

>  <NR>  (96) 
4

>  <NAR>  (96) 
2

>  <PSA>  (96) 
140.14

>  <Standard Type>  (96) 
nan

>  <Standard Relation>  (96) 
nan

>  <Standard Units>  (96) 
nan

>  <Standard Value>  (96) 
nan

>  <Assay ChEMBL ID>  (96) 
nan

>  <Assay Description>  (96) 
nan

>  <BAO Label>  (96) 
nan

>  <bits>  (96) 
<rdkit.DataStructs.cDataStructs.ExplicitBitVect object at 0x000001A37F95A880>

>  <Group>  (96) 
G2

$$$$

     RDKit          2D

 20 21  0  0  0  0  0  0  0  0999 V2000
   -0.5773   -6.8783    0.0000 N   0  0  0  0  0  4  0  0  0  0  0  0
    0.8899   -6.5665    0.0000 C   0  0  0  0  0  0  0  0  0  0  0  0
    2.0046   -7.5702    0.0000 N   0  0  0  0  0  0  0  0  0  0  0  0
    3.3037   -6.8202    0.0000 N   0  0  0  0  0  0  0  0  0  0  0  0
    2.9918   -5.3529    0.0000 C   0  0  0  0  0  0  0  0  0  0  0  0
    3.9955   -4.2382    0.0000 N   0  0  0  0  0  4  0  0  0  0  0  0
    1.5000   -5.1962    0.0000 C   0  0  0  0  0  0  0  0  0  0  0  0
    0.7500   -3.8971    0.0000 N   0  0  0  0  0  0  0  0  0  0  0  0
    1.5000   -2.5981    0.0000 N   0  0  0  0  0  0  0  0  0  0  0  0
    0.7500   -1.2990    0.0000 C   0  0  0  0  0  0  0  0  0  0  0  0
    1.5000    0.0000    0.0000 C   0  0  0  0  0  0  0  0  0  0  0  0
    0.7500    1.2990    0.0000 C   0  0  0  0  0  0  0  0  0  0  0  0
   -0.7500    1.2990    0.0000 C   0  0  0  0  0  0  0  0  0  0  0  0
   -1.5000    2.5981    0.0000 Cl  0  0  0  0  0  0  0  0  0  0  0  0
   -1.5000    0.0000    0.0000 C   0  0  0  0  0  0  0  0  0  0  0  0
   -3.0000    0.0000    0.0000 C   0  0  0  0  0  0  0  0  0  0  0  0
   -4.5000    0.0000    0.0000 F   0  0  0  0  0  0  0  0  0  0  0  0
   -3.0000    1.5000    0.0000 F   0  0  0  0  0  0  0  0  0  0  0  0
   -3.0000   -1.5000    0.0000 F   0  0  0  0  0  0  0  0  0  0  0  0
   -0.7500   -1.2990    0.0000 C   0  0  0  0  0  0  0  0  0  0  0  0
  1  2  2  0
  2  3  1  0
  3  4  1  0
  4  5  1  0
  5  6  2  0
  5  7  1  0
  7  8  2  0
  8  9  1  0
  9 10  1  0
 10 11  2  0
 11 12  1  0
 12 13  2  0
 13 14  1  0
 13 15  1  0
 15 16  1  0
 16 17  1  0
 16 18  1  0
 16 19  1  0
 15 20  2  0
  7  2  1  0
 20 10  1  0
M  CHG  2   1   1   6   1
M  END
>  <Compound_ID>  (97) 
C04477409

>  <Active>  (97) 
0

>  <Smiles>  (97) 
[NH2+]=C1NNC(=[NH2+])C1=NNc1ccc(Cl)c(C(F)(F)F)c1

>  <canonical_smi>  (97) 
[NH2+]=C1NNC(=[NH2+])C1=NNc1ccc(Cl)c(C(F)(F)F)c1

>  <Set>  (97) 
G2 inactive

>  <Set_type>  (97) 
Train

>  <MW>  (97) 
306.68

>  <HBD>  (97) 
5

>  <HBA>  (97) 
3

>  <NRB>  (97) 
2

>  <NR>  (97) 
2

>  <NAR>  (97) 
1

>  <PSA>  (97) 
99.63

>  <Standard Type>  (97) 
nan

>  <Standard Relation>  (97) 
nan

>  <Standard Units>  (97) 
nan

>  <Standard Value>  (97) 
nan

>  <Assay ChEMBL ID>  (97) 
nan

>  <Assay Description>  (97) 
nan

>  <BAO Label>  (97) 
nan

>  <bits>  (97) 
<rdkit.DataStructs.cDataStructs.ExplicitBitVect object at 0x000001A37F95A810>

>  <Group>  (97) 
G2

$$$$

     RDKit          2D

 22 24  0  0  0  0  0  0  0  0999 V2000
    4.1831    6.5422    0.0000 N   0  0  0  0  0  0  0  0  0  0  0  0
    3.8712    5.0750    0.0000 C   0  0  0  0  0  0  0  0  0  0  0  0
    4.9859    4.0713    0.0000 O   0  0  0  0  0  0  0  0  0  0  0  0
    2.4446    4.6115    0.0000 O   0  0  0  0  0  0  0  0  0  0  0  0
    2.1328    3.1443    0.0000 C   0  0  0  0  0  0  0  0  0  0  0  0
    0.7062    2.6807    0.0000 C   0  0  0  0  0  0  0  0  0  0  0  0
    0.3943    1.2135    0.0000 C   0  0  0  0  0  0  0  0  0  0  0  0
    1.2760    0.0000    0.0000 N   0  0  0  0  0  4  0  0  0  0  0  0
    0.3943   -1.2135    0.0000 C   0  0  0  0  0  0  0  0  0  0  0  0
    0.8578   -2.6401    0.0000 N   0  0  0  0  0  0  0  0  0  0  0  0
   -1.0323   -0.7500    0.0000 N   0  0  0  0  0  0  0  0  0  0  0  0
   -1.0323    0.7500    0.0000 C   0  0  0  0  0  0  0  0  0  0  0  0
   -2.1470    1.7537    0.0000 N   0  0  0  0  0  0  0  0  0  0  0  0
   -1.5963    1.8049    0.0000 C   0  0  0  0  0  0  0  0  0  0  0  0
   -1.7290    1.0971    0.0000 C   0  0  0  0  0  0  0  0  0  0  0  0
   -1.0390    1.3030    0.0000 C   0  0  0  0  0  0  0  0  0  0  0  0
   -1.9543   -2.0875    0.0000 O   0  0  0  0  0  0  0  0  0  0  0  0
   -0.6005   -1.6994    0.0000 O   0  0  0  0  0  0  0  0  0  0  0  0
   -1.8351    3.2209    0.0000 C   0  0  0  0  0  0  0  0  0  0  0  0
   -2.9499    4.2246    0.0000 N   0  0  0  0  0  4  0  0  0  0  0  0
   -0.4086    3.6844    0.0000 N   0  0  0  0  0  0  0  0  0  0  0  0
   -0.0967    5.1517    0.0000 O   0  0  0  0  0  0  0  0  0  0  0  0
  1  2  1  0
  2  3  2  0
  2  4  1  0
  4  5  1  0
  6  5  1  1
  6  7  1  0
  7  8  1  1
  8  9  2  0
  9 10  1  0
  9 11  1  0
 12 11  1  6
 12 13  1  0
 13 14  1  0
 14 15  1  0
 15 16  1  0
 16 17  1  0
 16 18  1  0
 13 19  1  0
 19 20  2  0
 19 21  1  0
 21 22  1  0
 21  6  1  0
 12  7  1  0
 16 12  1  0
M  CHG  2   8   1  20   1
M  END
>  <Compound_ID>  (98) 
C35395455

>  <Active>  (98) 
0

>  <Smiles>  (98) 
NC(=O)OC[C@H]1[C@H]2[NH+]=C(N)N[C@@]23N(CCC3(O)O)C(=[NH2+])N1O

>  <canonical_smi>  (98) 
NC(=O)OC[C@H]1[C@H]2[NH+]=C(N)N[C@@]23N(CCC3(O)O)C(=[NH2+])N1O

>  <Set>  (98) 
G2 inactive

>  <Set_type>  (98) 
Train

>  <MW>  (98) 
317.31

>  <HBD>  (98) 
8

>  <HBA>  (98) 
9

>  <NRB>  (98) 
2

>  <NR>  (98) 
3

>  <NAR>  (98) 
0

>  <PSA>  (98) 
197.1

>  <Standard Type>  (98) 
nan

>  <Standard Relation>  (98) 
nan

>  <Standard Units>  (98) 
nan

>  <Standard Value>  (98) 
nan

>  <Assay ChEMBL ID>  (98) 
nan

>  <Assay Description>  (98) 
nan

>  <BAO Label>  (98) 
nan

>  <bits>  (98) 
<rdkit.DataStructs.cDataStructs.ExplicitBitVect object at 0x000001A37F95A500>

>  <Group>  (98) 
G2

$$$$

     RDKit          2D

 20 21  0  0  0  0  0  0  0  0999 V2000
    3.0000    0.0000    0.0000 N   0  0  0  0  0  0  0  0  0  0  0  0
    1.5000    0.0000    0.0000 C   0  0  0  0  0  0  0  0  0  0  0  0
    0.7500   -1.2990    0.0000 N   0  0  0  0  0  0  0  0  0  0  0  0
   -0.7500   -1.2990    0.0000 C   0  0  0  0  0  0  0  0  0  0  0  0
   -1.5000   -2.5981    0.0000 N   0  0  0  0  0  0  0  0  0  0  0  0
   -1.5000    0.0000    0.0000 N   0  0  0  0  0  0  0  0  0  0  0  0
   -0.7500    1.2990    0.0000 C   0  0  0  0  0  0  0  0  0  0  0  0
   -1.5000    2.5981    0.0000 O   0  0  0  0  0  0  0  0  0  0  0  0
   -0.7500    3.8971    0.0000 C   0  0  0  0  0  0  0  0  0  0  0  0
   -1.5000    5.1962    0.0000 C   0  0  0  0  0  0  0  0  0  0  0  0
   -0.7500    6.4952    0.0000 O   0  0  0  0  0  0  0  0  0  0  0  0
   -1.5000    7.7942    0.0000 C   0  0  0  0  0  0  0  0  0  0  0  0
   -0.7500    9.0933    0.0000 N   0  0  0  0  0  0  0  0  0  0  0  0
   -1.5000   10.3923    0.0000 C   0  0  0  0  0  0  0  0  0  0  0  0
   -0.7500   11.6913    0.0000 N   0  0  0  0  0  0  0  0  0  0  0  0
   -3.0000   10.3923    0.0000 N   0  0  0  0  0  0  0  0  0  0  0  0
   -3.7500    9.0933    0.0000 C   0  0  0  0  0  0  0  0  0  0  0  0
   -5.2500    9.0933    0.0000 N   0  0  0  0  0  0  0  0  0  0  0  0
   -3.0000    7.7942    0.0000 N   0  0  0  0  0  0  0  0  0  0  0  0
    0.7500    1.2990    0.0000 N   0  0  0  0  0  0  0  0  0  0  0  0
  1  2  1  0
  2  3  2  0
  3  4  1  0
  4  5  1  0
  4  6  2  0
  6  7  1  0
  7  8  1  0
  8  9  1  0
  9 10  1  0
 10 11  1  0
 11 12  1  0
 12 13  2  0
 13 14  1  0
 14 15  1  0
 14 16  2  0
 16 17  1  0
 17 18  1  0
 17 19  2  0
  7 20  2  0
 20  2  1  0
 19 12  1  0
M  END
>  <Compound_ID>  (99) 
C44712506

>  <Active>  (99) 
0

>  <Smiles>  (99) 
Nc1nc(N)nc(OCCOc2nc(N)nc(N)n2)n1

>  <canonical_smi>  (99) 
Nc1nc(N)nc(OCCOc2nc(N)nc(N)n2)n1

>  <Set>  (99) 
G2 inactive

>  <Set_type>  (99) 
Train

>  <MW>  (99) 
280.25

>  <HBD>  (99) 
4

>  <HBA>  (99) 
12

>  <NRB>  (99) 
5

>  <NR>  (99) 
2

>  <NAR>  (99) 
2

>  <PSA>  (99) 
199.88

>  <Standard Type>  (99) 
nan

>  <Standard Relation>  (99) 
nan

>  <Standard Units>  (99) 
nan

>  <Standard Value>  (99) 
nan

>  <Assay ChEMBL ID>  (99) 
nan

>  <Assay Description>  (99) 
nan

>  <BAO Label>  (99) 
nan

>  <bits>  (99) 
<rdkit.DataStructs.cDataStructs.ExplicitBitVect object at 0x000001A37F95A490>

>  <Group>  (99) 
G2

$$$$

     RDKit          2D

 27 30  0  0  0  0  0  0  0  0999 V2000
    3.0000   -5.1962    0.0000 O   0  0  0  0  0  0  0  0  0  0  0  0
    1.5000   -5.1962    0.0000 C   0  0  0  0  0  0  0  0  0  0  0  0
    0.7500   -3.8971    0.0000 N   0  0  0  0  0  0  0  0  0  0  0  0
    1.5000   -2.5981    0.0000 N   0  0  0  0  0  0  0  0  0  0  0  0
    0.7500   -1.2990    0.0000 C   0  0  0  0  0  0  0  0  0  0  0  0
    1.5000    0.0000    0.0000 C   0  0  0  0  0  0  0  0  0  0  0  0
    0.7500    1.2990    0.0000 C   0  0  0  0  0  0  0  0  0  0  0  0
   -0.7500    1.2990    0.0000 C   0  0  0  0  0  0  0  0  0  0  0  0
   -1.5000    2.5981    0.0000 N   0  0  0  0  0  0  0  0  0  0  0  0
   -2.9918    2.7549    0.0000 C   0  0  0  0  0  0  0  0  0  0  0  0
   -3.3037    4.2221    0.0000 C   0  0  0  0  0  0  0  0  0  0  0  0
   -2.0046    4.9721    0.0000 C   0  0  0  0  0  0  0  0  0  0  0  0
   -0.8899    3.9684    0.0000 N   0  0  0  0  0  0  0  0  0  0  0  0
   -1.5000    0.0000    0.0000 N   0  0  0  0  0  0  0  0  0  0  0  0
   -0.7500   -1.2990    0.0000 N   0  0  0  0  0  0  0  0  0  0  0  0
    0.7500   -6.4952    0.0000 N   0  0  0  0  0  0  0  0  0  0  0  0
    1.5000   -7.7942    0.0000 C   0  0  0  0  0  0  0  0  0  0  0  0
    0.7500   -9.0933    0.0000 C   0  0  0  0  0  0  0  0  0  0  0  0
    1.5000  -10.3923    0.0000 C   0  0  0  0  0  0  0  0  0  0  0  0
    3.0000  -10.3923    0.0000 C   0  0  0  0  0  0  0  0  0  0  0  0
    3.7500  -11.6913    0.0000 N   0  0  0  0  0  0  0  0  0  0  0  0
    5.2418  -11.8481    0.0000 C   0  0  0  0  0  0  0  0  0  0  0  0
    5.5537  -13.3154    0.0000 C   0  0  0  0  0  0  0  0  0  0  0  0
    4.2546  -14.0654    0.0000 C   0  0  0  0  0  0  0  0  0  0  0  0
    3.1399  -13.0617    0.0000 C   0  0  0  0  0  0  0  0  0  0  0  0
    3.7500   -9.0933    0.0000 N   0  0  0  0  0  4  0  0  0  0  0  0
    3.0000   -7.7942    0.0000 C   0  0  0  0  0  0  0  0  0  0  0  0
  1  2  2  0
  2  3  1  0
  3  4  1  0
  4  5  1  0
  5  6  2  0
  6  7  1  0
  7  8  2  0
  8  9  1  0
  9 10  1  0
 10 11  2  0
 11 12  1  0
 12 13  2  0
  8 14  1  0
 14 15  2  0
  2 16  1  0
 16 17  1  0
 17 18  2  0
 18 19  1  0
 19 20  2  0
 20 21  1  0
 21 22  1  0
 22 23  1  0
 23 24  1  0
 24 25  1  0
 20 26  1  0
 26 27  2  0
 15  5  1  0
 27 17  1  0
 13  9  1  0
 25 21  1  0
M  CHG  1  26   1
M  END
>  <Compound_ID>  (100) 
C65799284

>  <Active>  (100) 
0

>  <Smiles>  (100) 
O=C(NNc1ccc(-n2cccn2)nn1)Nc1ccc(N2CCCC2)[nH+]c1

>  <canonical_smi>  (100) 
O=C(NNc1ccc(-n2cccn2)nn1)Nc1ccc(N2CCCC2)[nH+]c1

>  <Set>  (100) 
G2 inactive

>  <Set_type>  (100) 
Train

>  <MW>  (100) 
366.41

>  <HBD>  (100) 
3

>  <HBA>  (100) 
6

>  <NRB>  (100) 
5

>  <NR>  (100) 
4

>  <NAR>  (100) 
3

>  <PSA>  (100) 
114.14

>  <Standard Type>  (100) 
nan

>  <Standard Relation>  (100) 
nan

>  <Standard Units>  (100) 
nan

>  <Standard Value>  (100) 
nan

>  <Assay ChEMBL ID>  (100) 
nan

>  <Assay Description>  (100) 
nan

>  <BAO Label>  (100) 
nan

>  <bits>  (100) 
<rdkit.DataStructs.cDataStructs.ExplicitBitVect object at 0x000001A37F95A340>

>  <Group>  (100) 
G2

$$$$

     RDKit          2D

 28 29  0  0  0  0  0  0  0  0999 V2000
    3.0000    0.0000    0.0000 C   0  0  0  0  0  0  0  0  0  0  0  0
    1.5000    0.0000    0.0000 C   0  0  0  0  0  0  0  0  0  0  0  0
    0.7500   -1.2990    0.0000 C   0  0  0  0  0  0  0  0  0  0  0  0
   -0.7500   -1.2990    0.0000 C   0  0  0  0  0  0  0  0  0  0  0  0
   -1.5000    0.0000    0.0000 C   0  0  0  0  0  0  0  0  0  0  0  0
   -0.7500    1.2990    0.0000 C   0  0  0  0  0  0  0  0  0  0  0  0
   -1.5000    2.5981    0.0000 O   0  0  0  0  0  0  0  0  0  0  0  0
   -3.0000    2.5981    0.0000 C   0  0  0  0  0  0  0  0  0  0  0  0
   -3.7500    3.8971    0.0000 C   0  0  0  0  0  0  0  0  0  0  0  0
   -3.7500    1.2990    0.0000 C   0  0  0  0  0  0  0  0  0  0  0  0
   -3.0000    0.0000    0.0000 O   0  0  0  0  0  0  0  0  0  0  0  0
   -5.2500    1.2990    0.0000 N   0  0  0  0  0  0  0  0  0  0  0  0
   -6.0000    0.0000    0.0000 N   0  0  0  0  0  0  0  0  0  0  0  0
   -7.5000    0.0000    0.0000 C   0  0  0  0  0  0  0  0  0  0  0  0
   -8.2500    1.2990    0.0000 O   0  0  0  0  0  0  0  0  0  0  0  0
   -8.2500   -1.2990    0.0000 N   0  0  0  0  0  0  0  0  0  0  0  0
   -9.7500   -1.2990    0.0000 C   0  0  0  0  0  0  0  0  0  0  0  0
  -10.5000   -2.5981    0.0000 C   0  0  0  0  0  0  0  0  0  0  0  0
  -12.0000   -2.5981    0.0000 C   0  0  0  0  0  0  0  0  0  0  0  0
  -12.7500   -3.8971    0.0000 C   0  0  0  0  0  0  0  0  0  0  0  0
  -12.0000   -5.1962    0.0000 N   0  0  0  0  0  4  0  0  0  0  0  0
  -10.5000   -5.1962    0.0000 C   0  0  0  0  0  0  0  0  0  0  0  0
   -9.7500   -6.4952    0.0000 N   0  0  0  0  0  0  0  0  0  0  0  0
  -10.5000   -7.7942    0.0000 C   0  0  0  0  0  0  0  0  0  0  0  0
   -8.2500   -6.4952    0.0000 C   0  0  0  0  0  0  0  0  0  0  0  0
   -9.7500   -3.8971    0.0000 C   0  0  0  0  0  0  0  0  0  0  0  0
    0.7500    1.2990    0.0000 C   0  0  0  0  0  0  0  0  0  0  0  0
    1.5000    2.5981    0.0000 C   0  0  0  0  0  0  0  0  0  0  0  0
  1  2  1  0
  2  3  2  0
  3  4  1  0
  4  5  2  0
  5  6  1  0
  6  7  1  0
  7  8  1  0
  8  9  1  1
  8 10  1  0
 10 11  2  0
 10 12  1  0
 12 13  1  0
 13 14  1  0
 14 15  2  0
 14 16  1  0
 16 17  1  0
 17 18  1  0
 18 19  2  0
 19 20  1  0
 20 21  2  0
 21 22  1  0
 22 23  1  0
 23 24  1  0
 23 25  1  0
 22 26  2  0
  6 27  2  0
 27 28  1  0
 27  2  1  0
 26 18  1  0
M  CHG  1  21   1
M  END
>  <Compound_ID>  (101) 
C46285566

>  <Active>  (101) 
0

>  <Smiles>  (101) 
Cc1cccc(O[C@H](C)C(=O)NNC(=O)NCc2cc[nH+]c(N(C)C)c2)c1C

>  <canonical_smi>  (101) 
Cc1cccc(O[C@H](C)C(=O)NNC(=O)NCc2cc[nH+]c(N(C)C)c2)c1C

>  <Set>  (101) 
G2 inactive

>  <Set_type>  (101) 
Train

>  <MW>  (101) 
386.48

>  <HBD>  (101) 
3

>  <HBA>  (101) 
4

>  <NRB>  (101) 
6

>  <NR>  (101) 
2

>  <NAR>  (101) 
2

>  <PSA>  (101) 
96.84

>  <Standard Type>  (101) 
nan

>  <Standard Relation>  (101) 
nan

>  <Standard Units>  (101) 
nan

>  <Standard Value>  (101) 
nan

>  <Assay ChEMBL ID>  (101) 
nan

>  <Assay Description>  (101) 
nan

>  <BAO Label>  (101) 
nan

>  <bits>  (101) 
<rdkit.DataStructs.cDataStructs.ExplicitBitVect object at 0x000001A37F95A260>

>  <Group>  (101) 
G2

$$$$

     RDKit          2D

 29 31  0  0  0  0  0  0  0  0999 V2000
    3.0000   -2.5981    0.0000 O   0  0  0  0  0  0  0  0  0  0  0  0
    1.5000   -2.5981    0.0000 C   0  0  0  0  0  0  0  0  0  0  0  0
    0.7500   -1.2990    0.0000 C   0  0  0  0  0  0  0  0  0  0  0  0
    1.5000    0.0000    0.0000 C   0  0  0  0  0  0  0  0  0  0  0  0
    0.7500    1.2990    0.0000 C   0  0  0  0  0  0  0  0  0  0  0  0
   -0.7500    1.2990    0.0000 C   0  0  0  0  0  0  0  0  0  0  0  0
   -1.5000    0.0000    0.0000 C   0  0  0  0  0  0  0  0  0  0  0  0
   -0.7500   -1.2990    0.0000 C   0  0  0  0  0  0  0  0  0  0  0  0
   -1.5000   -2.5981    0.0000 C   0  0  0  0  0  0  0  0  0  0  0  0
   -3.0000   -2.5981    0.0000 O   0  0  0  0  0  0  0  0  0  0  0  0
   -0.7500   -3.8971    0.0000 C   0  0  0  0  0  0  0  0  0  0  0  0
   -1.5000   -5.1962    0.0000 C   0  0  0  0  0  0  0  0  0  0  0  0
   -3.0000   -5.1962    0.0000 O   0  0  0  0  0  0  0  0  0  0  0  0
   -0.7500   -6.4952    0.0000 C   0  0  0  0  0  0  0  0  0  0  0  0
   -1.5000   -7.7942    0.0000 N   0  0  0  0  0  0  0  0  0  0  0  0
   -3.0000   -7.7942    0.0000 C   0  0  0  0  0  0  0  0  0  0  0  0
   -3.7500   -9.0933    0.0000 C   0  0  0  0  0  0  0  0  0  0  0  0
   -5.2500   -9.0933    0.0000 C   0  0  0  0  0  0  0  0  0  0  0  0
   -6.0000  -10.3923    0.0000 N   0  0  0  0  0  4  0  0  0  0  0  0
   -7.5000  -10.3923    0.0000 C   0  0  0  0  0  0  0  0  0  0  0  0
   -8.2500  -11.6913    0.0000 C   0  0  0  0  0  0  0  0  0  0  0  0
   -9.7500  -11.6913    0.0000 O   0  0  0  0  0  0  0  0  0  0  0  0
   -5.2500  -11.6913    0.0000 C   0  0  0  0  0  0  0  0  0  0  0  0
   -6.0000  -12.9904    0.0000 C   0  0  0  0  0  0  0  0  0  0  0  0
   -5.2500  -14.2894    0.0000 O   0  0  0  0  0  0  0  0  0  0  0  0
    0.7500   -6.4952    0.0000 C   0  0  0  0  0  0  0  0  0  0  0  0
    1.5000   -5.1962    0.0000 C   0  0  0  0  0  0  0  0  0  0  0  0
    3.0000   -5.1962    0.0000 O   0  0  0  0  0  0  0  0  0  0  0  0
    0.7500   -3.8971    0.0000 C   0  0  0  0  0  0  0  0  0  0  0  0
  1  2  2  0
  2  3  1  0
  3  4  2  0
  4  5  1  0
  5  6  2  0
  6  7  1  0
  7  8  2  0
  8  9  1  0
  9 10  2  0
  9 11  1  0
 11 12  2  0
 12 13  1  0
 12 14  1  0
 14 15  1  0
 15 16  1  0
 16 17  1  0
 17 18  1  0
 18 19  1  0
 19 20  1  0
 20 21  1  0
 21 22  1  0
 19 23  1  0
 23 24  1  0
 24 25  1  0
 14 26  2  0
 26 27  1  0
 27 28  1  0
 27 29  2  0
 29  2  1  0
  8  3  1  0
 29 11  1  0
M  CHG  1  19   1
M  END
>  <Compound_ID>  (102) 
C05393058

>  <Active>  (102) 
0

>  <Smiles>  (102) 
O=C1c2ccccc2C(=O)c2c(O)c(NCCC[NH+](CCO)CCO)cc(O)c21

>  <canonical_smi>  (102) 
O=C1c2ccccc2C(=O)c2c(O)c(NCCC[NH+](CCO)CCO)cc(O)c21

>  <Set>  (102) 
G2 inactive

>  <Set_type>  (102) 
Train

>  <MW>  (102) 
401.44

>  <HBD>  (102) 
6

>  <HBA>  (102) 
7

>  <NRB>  (102) 
9

>  <NR>  (102) 
3

>  <NAR>  (102) 
3

>  <PSA>  (102) 
131.53

>  <Standard Type>  (102) 
nan

>  <Standard Relation>  (102) 
nan

>  <Standard Units>  (102) 
nan

>  <Standard Value>  (102) 
nan

>  <Assay ChEMBL ID>  (102) 
nan

>  <Assay Description>  (102) 
nan

>  <BAO Label>  (102) 
nan

>  <bits>  (102) 
<rdkit.DataStructs.cDataStructs.ExplicitBitVect object at 0x000001A37F95A1F0>

>  <Group>  (102) 
G2

$$$$

     RDKit          2D

 21 22  0  0  0  0  0  0  0  0999 V2000
    6.0000   -2.5981    0.0000 C   0  0  0  0  0  0  0  0  0  0  0  0
    5.2500   -1.2990    0.0000 C   0  0  0  0  0  0  0  0  0  0  0  0
    3.7500   -1.2990    0.0000 C   0  0  0  0  0  0  0  0  0  0  0  0
    3.0000    0.0000    0.0000 C   0  0  0  0  0  0  0  0  0  0  0  0
    1.5000    0.0000    0.0000 N   0  0  0  0  0  0  0  0  0  0  0  0
    0.7500   -1.2990    0.0000 C   0  0  0  0  0  0  0  0  0  0  0  0
    1.5000   -2.5981    0.0000 N   0  0  0  0  0  0  0  0  0  0  0  0
   -0.7500   -1.2990    0.0000 C   0  0  0  0  0  0  0  0  0  0  0  0
   -1.5000   -2.5981    0.0000 C   0  0  0  0  0  0  0  0  0  0  0  0
   -3.0000   -2.5981    0.0000 N   0  0  0  0  0  0  0  0  0  0  0  0
   -3.7500   -1.2990    0.0000 C   0  0  0  0  0  0  0  0  0  0  0  0
   -5.2500   -1.2990    0.0000 C   0  0  0  0  0  0  0  0  0  0  0  0
   -6.0000   -2.5981    0.0000 N   0  0  0  0  0  4  0  0  0  0  0  0
   -7.5000   -2.5981    0.0000 C   0  0  0  0  0  0  0  0  0  0  0  0
   -5.2500   -3.8971    0.0000 C   0  0  0  0  0  0  0  0  0  0  0  0
   -3.7500   -3.8971    0.0000 C   0  0  0  0  0  0  0  0  0  0  0  0
   -1.5000    0.0000    0.0000 C   0  0  0  0  0  0  0  0  0  0  0  0
   -3.0000    0.0000    0.0000 O   0  0  0  0  0  0  0  0  0  0  0  0
   -0.7500    1.2990    0.0000 N   0  0  0  0  0  0  0  0  0  0  0  0
    0.7500    1.2990    0.0000 C   0  0  0  0  0  0  0  0  0  0  0  0
    1.5000    2.5981    0.0000 O   0  0  0  0  0  0  0  0  0  0  0  0
  1  2  1  0
  2  3  1  0
  3  4  1  0
  4  5  1  0
  5  6  1  0
  6  7  1  0
  6  8  2  0
  8  9  1  0
  9 10  1  0
 10 11  1  0
 11 12  1  0
 12 13  1  0
 13 14  1  0
 13 15  1  0
 15 16  1  0
  8 17  1  0
 17 18  2  0
 17 19  1  0
 19 20  1  0
 20 21  2  0
 20  5  1  0
 16 10  1  0
M  CHG  1  13   1
M  END
>  <Compound_ID>  (103) 
C31891012

>  <Active>  (103) 
0

>  <Smiles>  (103) 
CCCCn1c(N)c(CN2CC[NH+](C)CC2)c(=O)[nH]c1=O

>  <canonical_smi>  (103) 
CCCCn1c(N)c(CN2CC[NH+](C)CC2)c(=O)[nH]c1=O

>  <Set>  (103) 
G2 inactive

>  <Set_type>  (103) 
Train

>  <MW>  (103) 
296.4

>  <HBD>  (103) 
3

>  <HBA>  (103) 
4

>  <NRB>  (103) 
5

>  <NR>  (103) 
2

>  <NAR>  (103) 
1

>  <PSA>  (103) 
88.56

>  <Standard Type>  (103) 
nan

>  <Standard Relation>  (103) 
nan

>  <Standard Units>  (103) 
nan

>  <Standard Value>  (103) 
nan

>  <Assay ChEMBL ID>  (103) 
nan

>  <Assay Description>  (103) 
nan

>  <BAO Label>  (103) 
nan

>  <bits>  (103) 
<rdkit.DataStructs.cDataStructs.ExplicitBitVect object at 0x000001A37F95A110>

>  <Group>  (103) 
G2

$$$$

     RDKit          2D

 39 43  0  0  0  0  0  0  0  0999 V2000
    3.7500   -1.2990    0.0000 C   0  0  0  0  0  0  0  0  0  0  0  0
    3.0000    0.0000    0.0000 O   0  0  0  0  0  0  0  0  0  0  0  0
    1.5000    0.0000    0.0000 C   0  0  0  0  0  0  0  0  0  0  0  0
    0.7500   -1.2990    0.0000 C   0  0  0  0  0  0  0  0  0  0  0  0
   -0.7500   -1.2990    0.0000 C   0  0  0  0  0  0  0  0  0  0  0  0
   -1.5000    0.0000    0.0000 C   0  0  0  0  0  0  0  0  0  0  0  0
   -3.0000    0.0000    0.0000 O   0  0  0  0  0  0  0  0  0  0  0  0
   -3.7500   -1.2990    0.0000 C   0  0  0  0  0  0  0  0  0  0  0  0
   -0.7500    1.2990    0.0000 C   0  0  0  0  0  0  0  0  0  0  0  0
   -1.5000    2.5981    0.0000 N   0  0  0  0  0  0  0  0  0  0  0  0
   -0.7500    3.8971    0.0000 C   0  0  0  0  0  0  0  0  0  0  0  0
   -1.5000    5.1962    0.0000 C   0  0  0  0  0  0  0  0  0  0  0  0
   -0.7500    6.4952    0.0000 C   0  0  0  0  0  0  0  0  0  0  0  0
   -1.5000    7.7942    0.0000 C   0  0  0  0  0  0  0  0  0  0  0  0
   -3.0000    7.7942    0.0000 C   0  0  0  0  0  0  0  0  0  0  0  0
   -3.7500    9.0933    0.0000 C   0  0  0  0  0  0  0  0  0  0  0  0
   -3.7500    6.4952    0.0000 C   0  0  0  0  0  0  0  0  0  0  0  0
   -3.0000    5.1962    0.0000 C   0  0  0  0  0  0  0  0  0  0  0  0
    0.7500    3.8971    0.0000 C   0  0  0  0  0  0  0  0  0  0  0  0
    1.5000    5.1962    0.0000 C   0  0  0  0  0  0  0  0  0  0  0  0
    3.0000    5.1962    0.0000 N   0  0  0  0  0  0  0  0  0  0  0  0
    3.7500    6.4952    0.0000 C   0  0  0  0  0  0  0  0  0  0  0  0
    5.2500    6.4952    0.0000 C   0  0  0  0  0  0  0  0  0  0  0  0
    6.0000    7.7942    0.0000 N   0  0  0  0  0  4  0  0  0  0  0  0
    7.5000    7.7942    0.0000 C   0  0  0  0  0  0  0  0  0  0  0  0
    5.2500    9.0933    0.0000 C   0  0  0  0  0  0  0  0  0  0  0  0
    3.7500    3.8971    0.0000 C   0  0  0  0  0  0  0  0  0  0  0  0
    3.0000    2.5981    0.0000 O   0  0  0  0  0  0  0  0  0  0  0  0
    5.2500    3.8971    0.0000 C   0  0  0  0  0  0  0  0  0  0  0  0
    6.0000    2.5981    0.0000 C   0  0  0  0  0  0  0  0  0  0  0  0
    7.5000    2.5981    0.0000 C   0  0  0  0  0  0  0  0  0  0  0  0
    8.2500    3.8971    0.0000 C   0  0  0  0  0  0  0  0  0  0  0  0
    7.5000    5.1962    0.0000 C   0  0  0  0  0  0  0  0  0  0  0  0
    6.0000    5.1962    0.0000 C   0  0  0  0  0  0  0  0  0  0  0  0
    8.5037    6.3109    0.0000 O   0  0  0  0  0  0  0  0  0  0  0  0
    9.8740    5.7008    0.0000 C   0  0  0  0  0  0  0  0  0  0  0  0
    9.7172    4.2090    0.0000 O   0  0  0  0  0  0  0  0  0  0  0  0
    1.5000    2.5981    0.0000 C   0  0  0  0  0  0  0  0  0  0  0  0
    0.7500    1.2990    0.0000 C   0  0  0  0  0  0  0  0  0  0  0  0
  1  2  1  0
  2  3  1  0
  3  4  2  0
  4  5  1  0
  5  6  2  0
  6  7  1  0
  7  8  1  0
  6  9  1  0
  9 10  2  0
 10 11  1  0
 11 12  1  0
 12 13  2  0
 13 14  1  0
 14 15  2  0
 15 16  1  0
 15 17  1  0
 17 18  2  0
 11 19  2  0
 19 20  1  0
 20 21  1  0
 21 22  1  0
 22 23  1  0
 23 24  1  0
 24 25  1  0
 24 26  1  0
 21 27  1  0
 27 28  2  0
 27 29  1  0
 29 30  2  0
 30 31  1  0
 31 32  2  0
 32 33  1  0
 33 34  2  0
 33 35  1  0
 35 36  1  0
 36 37  1  0
 19 38  1  0
 38 39  2  0
 39  3  1  0
 39  9  1  0
 18 12  1  0
 34 29  1  0
 37 32  1  0
M  CHG  1  24   1
M  END
>  <Compound_ID>  (104) 
C11968398

>  <Active>  (104) 
0

>  <Smiles>  (104) 
COc1ccc(OC)c2nc(-c3ccc(C)cc3)c(CN(CC[NH+](C)C)C(=O)c3ccc4c(c3)OCO4)cc12

>  <canonical_smi>  (104) 
COc1ccc(OC)c2nc(-c3ccc(C)cc3)c(CN(CC[NH+](C)C)C(=O)c3ccc4c(c3)OCO4)cc12

>  <Set>  (104) 
G2 inactive

>  <Set_type>  (104) 
Train

>  <MW>  (104) 
528.63

>  <HBD>  (104) 
1

>  <HBA>  (104) 
6

>  <NRB>  (104) 
9

>  <NR>  (104) 
5

>  <NAR>  (104) 
4

>  <PSA>  (104) 
74.56

>  <Standard Type>  (104) 
nan

>  <Standard Relation>  (104) 
nan

>  <Standard Units>  (104) 
nan

>  <Standard Value>  (104) 
nan

>  <Assay ChEMBL ID>  (104) 
nan

>  <Assay Description>  (104) 
nan

>  <BAO Label>  (104) 
nan

>  <bits>  (104) 
<rdkit.DataStructs.cDataStructs.ExplicitBitVect object at 0x000001A37F95A0A0>

>  <Group>  (104) 
G2

$$$$

     RDKit          2D

 38 42  0  0  0  0  0  0  0  0999 V2000
   -5.6836   -5.0463    0.0000 C   0  0  0  0  0  0  0  0  0  0  0  0
   -4.2164   -4.7344    0.0000 O   0  0  0  0  0  0  0  0  0  0  0  0
   -3.2127   -5.8491    0.0000 C   0  0  0  0  0  0  0  0  0  0  0  0
   -1.7455   -5.5373    0.0000 C   0  0  0  0  0  0  0  0  0  0  0  0
   -0.7418   -6.6520    0.0000 N   0  0  0  0  0  0  0  0  0  0  0  0
   -1.0537   -8.1192    0.0000 N   0  0  0  0  0  0  0  0  0  0  0  0
    0.2454   -8.8692    0.0000 N   0  0  0  0  0  0  0  0  0  0  0  0
    1.3601   -7.8655    0.0000 N   0  0  0  0  0  0  0  0  0  0  0  0
    0.7500   -6.4952    0.0000 C   0  0  0  0  0  0  0  0  0  0  0  0
    1.5000   -5.1962    0.0000 C   0  0  0  0  0  0  0  0  0  0  0  0
    0.7500   -3.8971    0.0000 C   0  0  0  0  0  0  0  0  0  0  0  0
   -0.7500   -3.8971    0.0000 C   0  0  0  0  0  0  0  0  0  0  0  0
   -1.5000   -2.5981    0.0000 C   0  0  0  0  0  0  0  0  0  0  0  0
   -3.0000   -2.5981    0.0000 C   0  0  0  0  0  0  0  0  0  0  0  0
   -3.7500   -1.2990    0.0000 C   0  0  0  0  0  0  0  0  0  0  0  0
   -3.0000   -0.0000    0.0000 C   0  0  0  0  0  0  0  0  0  0  0  0
   -1.5000   -0.0000    0.0000 C   0  0  0  0  0  0  0  0  0  0  0  0
   -0.7500    1.2990    0.0000 C   0  0  0  0  0  0  0  0  0  0  0  0
   -0.7500   -1.2990    0.0000 C   0  0  0  0  0  0  0  0  0  0  0  0
    0.7500   -1.2990    0.0000 N   0  0  0  0  0  4  0  0  0  0  0  0
    1.5000   -2.5981    0.0000 C   0  0  0  0  0  0  0  0  0  0  0  0
    3.0000   -2.5981    0.0000 O   0  0  0  0  0  0  0  0  0  0  0  0
    3.0000   -5.1962    0.0000 N   0  0  0  0  0  0  0  0  0  0  0  0
    3.7500   -6.4952    0.0000 C   0  0  0  0  0  0  0  0  0  0  0  0
    5.2500   -6.4952    0.0000 C   0  0  0  0  0  0  0  0  0  0  0  0
    6.0000   -5.1962    0.0000 N   0  0  0  0  0  0  0  0  0  0  0  0
    7.5000   -5.1962    0.0000 C   0  0  0  0  0  0  0  0  0  0  0  0
    8.2500   -6.4952    0.0000 C   0  0  0  0  0  0  0  0  0  0  0  0
    9.7500   -6.4952    0.0000 C   0  0  0  0  0  0  0  0  0  0  0  0
   10.5000   -5.1962    0.0000 C   0  0  0  0  0  0  0  0  0  0  0  0
    9.7500   -3.8971    0.0000 C   0  0  0  0  0  0  0  0  0  0  0  0
   10.5000   -2.5981    0.0000 C   0  0  0  0  0  0  0  0  0  0  0  0
   11.2500   -1.2990    0.0000 F   0  0  0  0  0  0  0  0  0  0  0  0
   11.7990   -3.3481    0.0000 F   0  0  0  0  0  0  0  0  0  0  0  0
    9.2010   -1.8481    0.0000 F   0  0  0  0  0  0  0  0  0  0  0  0
    8.2500   -3.8971    0.0000 C   0  0  0  0  0  0  0  0  0  0  0  0
    5.2500   -3.8971    0.0000 C   0  0  0  0  0  0  0  0  0  0  0  0
    3.7500   -3.8971    0.0000 C   0  0  0  0  0  0  0  0  0  0  0  0
  1  2  1  0
  2  3  1  0
  3  4  1  0
  4  5  1  0
  5  6  1  0
  6  7  2  0
  7  8  1  0
  8  9  2  0
  9 10  1  0
 10 11  1  0
 11 12  1  6
 12 13  2  0
 13 14  1  0
 14 15  2  0
 15 16  1  0
 16 17  2  0
 17 18  1  0
 17 19  1  0
 19 20  2  0
 20 21  1  0
 21 22  2  0
 10 23  1  6
 23 24  1  0
 24 25  1  0
 25 26  1  0
 26 27  1  0
 27 28  2  0
 28 29  1  0
 29 30  2  0
 30 31  1  0
 31 32  1  0
 32 33  1  0
 32 34  1  0
 32 35  1  0
 31 36  2  0
 26 37  1  0
 37 38  1  0
  9  5  1  0
 21 11  1  0
 38 23  1  0
 19 13  1  0
 36 27  1  0
M  CHG  1  20   1
M  END
>  <Compound_ID>  (105) 
C39710801

>  <Active>  (105) 
0

>  <Smiles>  (105) 
COCCn1nnnc1[C@H]([C@@H]1C=c2cccc(C)c2=[NH+]C1=O)N1CCN(c2cccc(C(F)(F)F)c2)CC1

>  <canonical_smi>  (105) 
COCCn1nnnc1[C@H]([C@@H]1C=c2cccc(C)c2=[NH+]C1=O)N1CCN(c2cccc(C(F)(F)F)c2)CC1

>  <Set>  (105) 
G2 inactive

>  <Set_type>  (105) 
Train

>  <MW>  (105) 
528.56

>  <HBD>  (105) 
1

>  <HBA>  (105) 
7

>  <NRB>  (105) 
7

>  <NR>  (105) 
5

>  <NAR>  (105) 
3

>  <PSA>  (105) 
90.35

>  <Standard Type>  (105) 
nan

>  <Standard Relation>  (105) 
nan

>  <Standard Units>  (105) 
nan

>  <Standard Value>  (105) 
nan

>  <Assay ChEMBL ID>  (105) 
nan

>  <Assay Description>  (105) 
nan

>  <BAO Label>  (105) 
nan

>  <bits>  (105) 
<rdkit.DataStructs.cDataStructs.ExplicitBitVect object at 0x000001A37F95A030>

>  <Group>  (105) 
G2

$$$$

     RDKit          2D

 25 27  0  0  0  0  0  0  0  0999 V2000
    0.7500   -3.8971    0.0000 C   0  0  0  0  0  0  0  0  0  0  0  0
    1.5000   -2.5981    0.0000 C   0  0  0  0  0  0  0  0  0  0  0  0
    3.0000   -2.5981    0.0000 C   0  0  0  0  0  0  0  0  0  0  0  0
    0.7500   -1.2990    0.0000 C   0  0  0  0  0  0  0  0  0  0  0  0
    1.5000    0.0000    0.0000 C   0  0  0  0  0  0  0  0  0  0  0  0
    0.7500    1.2990    0.0000 N   0  0  0  0  0  0  0  0  0  0  0  0
   -0.7500    1.2990    0.0000 C   0  0  0  0  0  0  0  0  0  0  0  0
   -1.5000    0.0000    0.0000 C   0  0  0  0  0  0  0  0  0  0  0  0
   -3.0000    0.0000    0.0000 C   0  0  0  0  0  0  0  0  0  0  0  0
   -3.7500    1.2990    0.0000 C   0  0  0  0  0  0  0  0  0  0  0  0
   -3.7500   -1.2990    0.0000 C   0  0  0  0  0  0  0  0  0  0  0  0
    1.7010   -0.7500    0.0000 C   0  0  0  0  0  0  0  0  0  0  0  0
    3.0000   -0.0000    0.0000 N   0  0  0  0  0  4  0  0  0  0  0  0
    2.2500   -1.2990    0.0000 C   0  0  0  0  0  0  0  0  0  0  0  0
    2.2500    1.2990    0.0000 C   0  0  0  0  0  0  0  0  0  0  0  0
    3.0000    2.5981    0.0000 C   0  0  0  0  0  0  0  0  0  0  0  0
    2.2500    3.8971    0.0000 O   0  0  0  0  0  0  0  0  0  0  0  0
    4.5000    2.5981    0.0000 C   0  0  0  0  0  0  0  0  0  0  0  0
    5.2500    1.2990    0.0000 O   0  0  0  0  0  0  0  0  0  0  0  0
    5.2500    3.8971    0.0000 C   0  0  0  0  0  0  0  0  0  0  0  0
    4.5000    5.1962    0.0000 O   0  0  0  0  0  0  0  0  0  0  0  0
    6.7500    3.8971    0.0000 C   0  0  0  0  0  0  0  0  0  0  0  0
    7.5000    5.1962    0.0000 O   0  0  0  0  0  0  0  0  0  0  0  0
   -0.7500   -1.2990    0.0000 C   0  0  0  0  0  0  0  0  0  0  0  0
   -1.5000   -2.5981    0.0000 O   0  0  0  0  0  0  0  0  0  0  0  0
  1  2  1  0
  2  3  1  0
  4  2  1  1
  4  5  1  0
  5  6  1  0
  6  7  1  0
  7  8  1  0
  8  9  1  6
  9 10  1  0
  9 11  1  0
  8 12  1  0
 12 13  1  0
 13 14  1  0
 15 13  1  6
 15 16  1  0
 16 17  1  6
 16 18  1  0
 18 19  1  1
 18 20  1  0
 20 21  1  6
 20 22  1  0
 22 23  1  0
  8 24  1  0
 24 25  2  0
 14  4  1  0
 24  4  1  0
 15  6  1  0
M  CHG  1  13   1
M  END
>  <Compound_ID>  (106) 
C19323147

>  <Active>  (106) 
0

>  <Smiles>  (106) 
CC(C)[C@@]12CN3C[C@@](C(C)C)(C[NH+](C1)[C@H]3[C@H](O)[C@H](O)[C@H](O)CO)C2=O

>  <canonical_smi>  (106) 
CC(C)[C@]12CN3C[C@](C(C)C)(C[NH+](C1)[C@H]3[C@H](O)[C@H](O)[C@H](O)CO)C2=O

>  <Set>  (106) 
G2 inactive

>  <Set_type>  (106) 
Train

>  <MW>  (106) 
357.47

>  <HBD>  (106) 
5

>  <HBA>  (106) 
6

>  <NRB>  (106) 
6

>  <NR>  (106) 
4

>  <NAR>  (106) 
0

>  <PSA>  (106) 
105.67

>  <Standard Type>  (106) 
nan

>  <Standard Relation>  (106) 
nan

>  <Standard Units>  (106) 
nan

>  <Standard Value>  (106) 
nan

>  <Assay ChEMBL ID>  (106) 
nan

>  <Assay Description>  (106) 
nan

>  <BAO Label>  (106) 
nan

>  <bits>  (106) 
<rdkit.DataStructs.cDataStructs.ExplicitBitVect object at 0x000001A37F959FC0>

>  <Group>  (106) 
G2

$$$$

     RDKit          2D

 35 39  0  0  0  0  0  0  0  0999 V2000
   -3.5246  -12.2864    0.0000 C   0  0  0  0  0  0  0  0  0  0  0  0
   -4.7381  -11.4047    0.0000 C   0  0  0  0  0  0  0  0  0  0  0  0
   -6.1084  -12.0149    0.0000 C   0  0  0  0  0  0  0  0  0  0  0  0
   -7.3220  -11.1332    0.0000 C   0  0  0  0  0  0  0  0  0  0  0  0
   -7.1652   -9.6414    0.0000 C   0  0  0  0  0  0  0  0  0  0  0  0
   -5.7949   -9.0313    0.0000 C   0  0  0  0  0  0  0  0  0  0  0  0
   -5.6381   -7.5395    0.0000 C   0  0  0  0  0  0  0  0  0  0  0  0
   -4.5813   -9.9130    0.0000 N   0  0  0  0  0  4  0  0  0  0  0  0
   -3.2110   -9.3029    0.0000 C   0  0  0  0  0  0  0  0  0  0  0  0
   -3.0542   -7.8111    0.0000 C   0  0  0  0  0  0  0  0  0  0  0  0
   -1.6839   -7.2010    0.0000 C   0  0  0  0  0  0  0  0  0  0  0  0
   -1.5271   -5.7092    0.0000 N   0  0  0  0  0  0  0  0  0  0  0  0
   -0.1568   -5.0991    0.0000 C   0  0  0  0  0  0  0  0  0  0  0  0
    1.0567   -5.9808    0.0000 O   0  0  0  0  0  0  0  0  0  0  0  0
   -0.0000   -3.6073    0.0000 C   0  0  0  0  0  0  0  0  0  0  0  0
    1.2135   -2.7256    0.0000 C   0  0  0  0  0  0  0  0  0  0  0  0
    0.7500   -1.2990    0.0000 C   0  0  0  0  0  0  0  0  0  0  0  0
    1.5000    0.0000    0.0000 C   0  0  0  0  0  0  0  0  0  0  0  0
    0.7500    1.2990    0.0000 C   0  0  0  0  0  0  0  0  0  0  0  0
   -0.7500    1.2990    0.0000 C   0  0  0  0  0  0  0  0  0  0  0  0
   -1.5000    0.0000    0.0000 C   0  0  0  0  0  0  0  0  0  0  0  0
   -0.7500   -1.2990    0.0000 C   0  0  0  0  0  0  0  0  0  0  0  0
   -1.2135   -2.7256    0.0000 N   0  0  0  0  0  0  0  0  0  0  0  0
   -2.5838   -3.3357    0.0000 C   0  0  0  0  0  0  0  0  0  0  0  0
   -2.7406   -4.8275    0.0000 C   0  0  0  0  0  0  0  0  0  0  0  0
   -3.3982   -6.1757    0.0000 C   0  0  0  0  0  0  0  0  0  0  0  0
   -4.1825   -4.4141    0.0000 C   0  0  0  0  0  0  0  0  0  0  0  0
   -5.2615   -5.4560    0.0000 O   0  0  0  0  0  0  0  0  0  0  0  0
   -4.5454   -2.9586    0.0000 N   0  0  0  0  0  0  0  0  0  0  0  0
   -5.9873   -2.5452    0.0000 C   0  0  0  0  0  0  0  0  0  0  0  0
   -6.3502   -1.0897    0.0000 C   0  0  0  0  0  0  0  0  0  0  0  0
   -7.7921   -0.6763    0.0000 C   0  0  0  0  0  0  0  0  0  0  0  0
   -8.8711   -1.7182    0.0000 C   0  0  0  0  0  0  0  0  0  0  0  0
   -8.5082   -3.1737    0.0000 C   0  0  0  0  0  0  0  0  0  0  0  0
   -7.0663   -3.5871    0.0000 C   0  0  0  0  0  0  0  0  0  0  0  0
  2  1  1  1
  2  3  1  0
  3  4  1  0
  4  5  1  0
  5  6  1  0
  6  7  1  6
  6  8  1  0
  8  9  1  0
  9 10  1  0
 10 11  1  0
 11 12  1  0
 12 13  1  0
 13 14  2  0
 13 15  1  0
 15 16  2  0
 16 17  1  0
 17 18  2  0
 18 19  1  0
 19 20  2  0
 20 21  1  0
 21 22  2  0
 22 23  1  0
 23 24  1  0
 24 25  1  0
 25 26  1  1
 25 27  1  0
 27 28  2  0
 27 29  1  0
 29 30  1  0
 30 31  1  0
 31 32  1  0
 32 33  1  0
 33 34  1  0
 34 35  1  0
  8  2  1  0
 25 12  1  0
 35 30  1  0
 23 15  1  0
 22 17  1  0
M  CHG  1   8   1
M  END
>  <Compound_ID>  (107) 
C20902860

>  <Active>  (107) 
0

>  <Smiles>  (107) 
C[C@H]1CCC[C@H](C)[NH+]1CCCN1C(=O)c2cc3ccccc3n2C[C@@]1(C)C(=O)NC1CCCCC1

>  <canonical_smi>  (107) 
C[C@H]1CCC[C@H](C)[NH+]1CCCN1C(=O)c2cc3ccccc3n2C[C@@]1(C)C(=O)NC1CCCCC1

>  <Set>  (107) 
G2 inactive

>  <Set_type>  (107) 
Train

>  <MW>  (107) 
479.69

>  <HBD>  (107) 
2

>  <HBA>  (107) 
2

>  <NRB>  (107) 
6

>  <NR>  (107) 
5

>  <NAR>  (107) 
2

>  <PSA>  (107) 
58.78

>  <Standard Type>  (107) 
nan

>  <Standard Relation>  (107) 
nan

>  <Standard Units>  (107) 
nan

>  <Standard Value>  (107) 
nan

>  <Assay ChEMBL ID>  (107) 
nan

>  <Assay Description>  (107) 
nan

>  <BAO Label>  (107) 
nan

>  <bits>  (107) 
<rdkit.DataStructs.cDataStructs.ExplicitBitVect object at 0x000001A37F959F50>

>  <Group>  (107) 
G2

$$$$

     RDKit          2D

 28 30  0  0  0  0  0  0  0  0999 V2000
    3.0000    0.0000    0.0000 C   0  0  0  0  0  0  0  0  0  0  0  0
    1.5000    0.0000    0.0000 N   0  0  0  0  0  4  0  0  0  0  0  0
    0.7500   -1.2990    0.0000 C   0  0  0  0  0  0  0  0  0  0  0  0
   -0.7500   -1.2990    0.0000 C   0  0  0  0  0  0  0  0  0  0  0  0
   -1.5000    0.0000    0.0000 C   0  0  0  0  0  0  0  0  0  0  0  0
   -0.7500    1.2990    0.0000 C   0  0  0  0  0  0  0  0  0  0  0  0
   -1.7537    2.4138    0.0000 S   0  0  0  0  0  0  0  0  0  0  0  0
   -3.1240    1.8037    0.0000 C   0  0  0  0  0  0  0  0  0  0  0  0
   -4.4231    2.5537    0.0000 N   0  0  0  0  0  4  0  0  0  0  0  0
   -4.4231    4.0537    0.0000 C   0  0  0  0  0  0  0  0  0  0  0  0
   -5.7221    4.8037    0.0000 C   0  0  0  0  0  0  0  0  0  0  0  0
   -5.7221    6.3037    0.0000 C   0  0  0  0  0  0  0  0  0  0  0  0
   -7.0211    7.0537    0.0000 C   0  0  0  0  0  0  0  0  0  0  0  0
   -7.0211    8.5537    0.0000 Br  0  0  0  0  0  0  0  0  0  0  0  0
   -8.3202    6.3037    0.0000 C   0  0  0  0  0  0  0  0  0  0  0  0
   -8.3202    4.8037    0.0000 C   0  0  0  0  0  0  0  0  0  0  0  0
   -9.6192    4.0537    0.0000 Cl  0  0  0  0  0  0  0  0  0  0  0  0
   -7.0211    4.0537    0.0000 C   0  0  0  0  0  0  0  0  0  0  0  0
   -7.0211    2.5537    0.0000 O   0  0  0  0  0  1  0  0  0  0  0  0
   -2.9672    0.3119    0.0000 C   0  0  0  0  0  0  0  0  0  0  0  0
   -4.0819   -0.6918    0.0000 C   0  0  0  0  0  0  0  0  0  0  0  0
   -3.7701   -2.1590    0.0000 O   0  0  0  0  0  0  0  0  0  0  0  0
   -5.5085   -0.2283    0.0000 O   0  0  0  0  0  0  0  0  0  0  0  0
   -6.6232   -1.2320    0.0000 C   0  0  0  0  0  0  0  0  0  0  0  0
   -7.6269   -0.1173    0.0000 C   0  0  0  0  0  0  0  0  0  0  0  0
   -5.6195   -2.3467    0.0000 C   0  0  0  0  0  0  0  0  0  0  0  0
   -7.7380   -2.2357    0.0000 C   0  0  0  0  0  0  0  0  0  0  0  0
    0.7500    1.2990    0.0000 C   0  0  0  0  0  0  0  0  0  0  0  0
  1  2  1  0
  2  3  1  0
  3  4  1  0
  4  5  1  0
  5  6  2  0
  6  7  1  0
  7  8  1  0
  8  9  1  0
  9 10  2  0
 10 11  1  0
 11 12  2  0
 12 13  1  0
 13 14  1  0
 13 15  2  0
 15 16  1  0
 16 17  1  0
 16 18  2  0
 18 19  1  0
  8 20  2  0
 20 21  1  0
 21 22  2  0
 21 23  1  0
 23 24  1  0
 24 25  1  0
 24 26  1  0
 24 27  1  0
  6 28  1  0
 28  2  1  0
 20  5  1  0
 18 11  1  0
M  CHG  3   2   1   9   1  19  -1
M  END
>  <Compound_ID>  (108) 
C19890432

>  <Active>  (108) 
0

>  <Smiles>  (108) 
C[NH+]1CCc2c(sc(/[NH+]=C/c3cc(Br)cc(Cl)c3[O-])c2C(=O)OC(C)(C)C)C1

>  <canonical_smi>  (108) 
C[NH+]1CCc2c(sc(/[NH+]=C/c3cc(Br)cc(Cl)c3[O-])c2C(=O)OC(C)(C)C)C1

>  <Set>  (108) 
G2 inactive

>  <Set_type>  (108) 
Train

>  <MW>  (108) 
486.84

>  <HBD>  (108) 
2

>  <HBA>  (108) 
3

>  <NRB>  (108) 
3

>  <NR>  (108) 
3

>  <NAR>  (108) 
2

>  <PSA>  (108) 
67.77

>  <Standard Type>  (108) 
nan

>  <Standard Relation>  (108) 
nan

>  <Standard Units>  (108) 
nan

>  <Standard Value>  (108) 
nan

>  <Assay ChEMBL ID>  (108) 
nan

>  <Assay Description>  (108) 
nan

>  <BAO Label>  (108) 
nan

>  <bits>  (108) 
<rdkit.DataStructs.cDataStructs.ExplicitBitVect object at 0x000001A37F959E70>

>  <Group>  (108) 
G2

$$$$

     RDKit          2D

 34 37  0  0  0  0  0  0  0  0999 V2000
   10.0840   -6.7354    0.0000 C   0  0  0  0  0  0  0  0  0  0  0  0
    8.7136   -7.3456    0.0000 C   0  0  0  0  0  0  0  0  0  0  0  0
    7.5001   -6.4639    0.0000 C   0  0  0  0  0  0  0  0  0  0  0  0
    6.1298   -7.0740    0.0000 N   0  0  0  0  0  0  0  0  0  0  0  0
    5.8179   -8.5412    0.0000 C   0  0  0  0  0  0  0  0  0  0  0  0
    6.8216   -9.6559    0.0000 C   0  0  0  0  0  0  0  0  0  0  0  0
    8.2888   -9.3440    0.0000 C   0  0  0  0  0  0  0  0  0  0  0  0
    9.2925  -10.4588    0.0000 C   0  0  0  0  0  0  0  0  0  0  0  0
    8.8290  -11.8854    0.0000 C   0  0  0  0  0  0  0  0  0  0  0  0
    9.8327  -13.0001    0.0000 Cl  0  0  0  0  0  0  0  0  0  0  0  0
    7.3618  -12.1972    0.0000 C   0  0  0  0  0  0  0  0  0  0  0  0
    6.3581  -11.0825    0.0000 C   0  0  0  0  0  0  0  0  0  0  0  0
    4.3261   -8.6980    0.0000 C   0  0  0  0  0  0  0  0  0  0  0  0
    3.7160   -7.3277    0.0000 S   0  0  0  0  0  0  0  0  0  0  0  0
    4.8308   -6.3240    0.0000 C   0  0  0  0  0  0  0  0  0  0  0  0
    4.6740   -4.8322    0.0000 N   0  0  0  0  0  4  0  0  0  0  0  0
    5.8875   -3.9505    0.0000 C   0  0  0  0  0  0  0  0  0  0  0  0
    7.2578   -4.5606    0.0000 C   0  0  0  0  0  0  0  0  0  0  0  0
    8.4713   -3.6789    0.0000 C   0  0  0  0  0  0  0  0  0  0  0  0
    8.3145   -2.1872    0.0000 C   0  0  0  0  0  0  0  0  0  0  0  0
    9.5281   -1.3055    0.0000 S   0  0  0  0  0  0  0  0  0  0  0  0
   10.4097   -2.5190    0.0000 O   0  0  0  0  0  0  0  0  0  0  0  0
    8.6464   -0.0920    0.0000 O   0  0  0  0  0  0  0  0  0  0  0  0
   10.7416   -0.4238    0.0000 N   0  0  0  0  0  0  0  0  0  0  0  0
   10.5848    1.0680    0.0000 C   0  0  0  0  0  0  0  0  0  0  0  0
   11.7983    1.9497    0.0000 N   0  0  0  0  0  0  0  0  0  0  0  0
   11.6415    3.4414    0.0000 C   0  0  0  0  0  0  0  0  0  0  0  0
   12.8551    4.3231    0.0000 C   0  0  0  0  0  0  0  0  0  0  0  0
   10.2712    4.0515    0.0000 C   0  0  0  0  0  0  0  0  0  0  0  0
    9.0577    3.1699    0.0000 C   0  0  0  0  0  0  0  0  0  0  0  0
    7.6874    3.7800    0.0000 C   0  0  0  0  0  0  0  0  0  0  0  0
    9.2145    1.6781    0.0000 N   0  0  0  0  0  0  0  0  0  0  0  0
    6.9442   -1.5771    0.0000 C   0  0  0  0  0  0  0  0  0  0  0  0
    5.7307   -2.4587    0.0000 C   0  0  0  0  0  0  0  0  0  0  0  0
  1  2  2  0
  2  3  1  0
  3  4  1  0
  4  5  1  0
  5  6  1  0
  6  7  2  0
  7  8  1  0
  8  9  2  0
  9 10  1  0
  9 11  1  0
 11 12  2  0
  5 13  2  0
 13 14  1  0
 14 15  1  0
 15 16  2  0
 16 17  1  0
 17 18  2  0
 18 19  1  0
 19 20  2  0
 20 21  1  0
 21 22  2  0
 21 23  2  0
 21 24  1  0
 24 25  1  0
 25 26  2  0
 26 27  1  0
 27 28  1  0
 27 29  2  0
 29 30  1  0
 30 31  1  0
 30 32  2  0
 20 33  1  0
 33 34  2  0
 15  4  1  0
 34 17  1  0
 12  6  1  0
 32 25  1  0
M  CHG  1  16   1
M  END
>  <Compound_ID>  (109) 
C12559528

>  <Active>  (109) 
0

>  <Smiles>  (109) 
C=CCn1c(-c2ccc(Cl)cc2)cs/c1=[NH+]/c1ccc(S(=O)(=O)Nc2nc(C)cc(C)n2)cc1

>  <canonical_smi>  (109) 
C=CCn1c(-c2ccc(Cl)cc2)cs/c1=[NH+]/c1ccc(S(=O)(=O)Nc2nc(C)cc(C)n2)cc1

>  <Set>  (109) 
G2 inactive

>  <Set_type>  (109) 
Train

>  <MW>  (109) 
513.07

>  <HBD>  (109) 
2

>  <HBA>  (109) 
4

>  <NRB>  (109) 
7

>  <NR>  (109) 
4

>  <NAR>  (109) 
4

>  <PSA>  (109) 
90.85

>  <Standard Type>  (109) 
nan

>  <Standard Relation>  (109) 
nan

>  <Standard Units>  (109) 
nan

>  <Standard Value>  (109) 
nan

>  <Assay ChEMBL ID>  (109) 
nan

>  <Assay Description>  (109) 
nan

>  <BAO Label>  (109) 
nan

>  <bits>  (109) 
<rdkit.DataStructs.cDataStructs.ExplicitBitVect object at 0x000001A37F959D90>

>  <Group>  (109) 
G2

$$$$

     RDKit          2D

 21 23  0  0  0  0  0  0  0  0999 V2000
   -3.7500   -1.2990    0.0000 C   0  0  0  0  0  0  0  0  0  0  0  0
   -3.0000   -2.5981    0.0000 N   0  0  0  0  0  0  0  0  0  0  0  0
   -1.5000   -2.5981    0.0000 C   0  0  0  0  0  0  0  0  0  0  0  0
   -0.7500   -3.8971    0.0000 C   0  0  0  0  0  0  0  0  0  0  0  0
   -1.5000   -5.1962    0.0000 N   0  0  0  0  0  0  0  0  0  0  0  0
    0.7500   -3.8971    0.0000 C   0  0  0  0  0  0  0  0  0  0  0  0
    1.5000   -2.5981    0.0000 N   0  0  0  0  0  4  0  0  0  0  0  0
    0.7500   -1.2990    0.0000 C   0  0  0  0  0  0  0  0  0  0  0  0
    1.5000    0.0000    0.0000 C   0  0  0  0  0  0  0  0  0  0  0  0
    0.7500    1.2990    0.0000 C   0  0  0  0  0  0  0  0  0  0  0  0
   -0.7500    1.2990    0.0000 C   0  0  0  0  0  0  0  0  0  0  0  0
   -1.5000    2.5981    0.0000 Br  0  0  0  0  0  0  0  0  0  0  0  0
   -1.5000    0.0000    0.0000 C   0  0  0  0  0  0  0  0  0  0  0  0
   -0.7500   -1.2990    0.0000 C   0  0  0  0  0  0  0  0  0  0  0  0
   -3.7500   -3.8971    0.0000 C   0  0  0  0  0  0  0  0  0  0  0  0
   -3.1399   -5.2674    0.0000 C   0  0  0  0  0  0  0  0  0  0  0  0
   -4.2546   -6.2711    0.0000 C   0  0  0  0  0  0  0  0  0  0  0  0
   -5.5537   -5.5211    0.0000 S   0  0  0  0  0  0  0  0  0  0  0  0
   -6.1638   -6.8914    0.0000 O   0  0  0  0  0  0  0  0  0  0  0  0
   -6.9802   -5.0576    0.0000 O   0  0  0  0  0  0  0  0  0  0  0  0
   -5.2418   -4.0539    0.0000 C   0  0  0  0  0  0  0  0  0  0  0  0
  1  2  1  0
  2  3  1  0
  3  4  2  0
  4  5  1  0
  4  6  1  0
  6  7  2  0
  7  8  1  0
  8  9  2  0
  9 10  1  0
 10 11  2  0
 11 12  1  0
 11 13  1  0
 13 14  2  0
 15  2  1  1
 15 16  1  0
 16 17  1  0
 17 18  1  0
 18 19  2  0
 18 20  2  0
 18 21  1  0
 14  3  1  0
 21 15  1  0
 14  8  1  0
M  CHG  1   7   1
M  END
>  <Compound_ID>  (110) 
C36869535

>  <Active>  (110) 
0

>  <Smiles>  (110) 
CN(c1c(N)c[nH+]c2ccc(Br)cc12)[C@H]1CCS(=O)(=O)C1

>  <canonical_smi>  (110) 
CN(c1c(N)c[nH+]c2ccc(Br)cc12)[C@H]1CCS(=O)(=O)C1

>  <Set>  (110) 
G2 inactive

>  <Set_type>  (110) 
Test

>  <MW>  (110) 
371.28

>  <HBD>  (110) 
1

>  <HBA>  (110) 
4

>  <NRB>  (110) 
2

>  <NR>  (110) 
3

>  <NAR>  (110) 
2

>  <PSA>  (110) 
77.54

>  <Standard Type>  (110) 
nan

>  <Standard Relation>  (110) 
nan

>  <Standard Units>  (110) 
nan

>  <Standard Value>  (110) 
nan

>  <Assay ChEMBL ID>  (110) 
nan

>  <Assay Description>  (110) 
nan

>  <BAO Label>  (110) 
nan

>  <bits>  (110) 
<rdkit.DataStructs.cDataStructs.ExplicitBitVect object at 0x000001A37F959D20>

>  <Group>  (110) 
G2

$$$$

     RDKit          2D

 24 27  0  0  0  0  0  0  0  0999 V2000
    0.4895   -2.7762    0.0000 O   0  0  0  0  0  0  0  0  0  0  0  0
    0.7500   -1.2990    0.0000 P   0  0  0  0  0  5  0  0  0  0  0  0
    2.1595   -1.8121    0.0000 C   0  0  0  0  0  0  0  0  0  0  0  0
    2.4200   -3.2893    0.0000 C   0  0  0  0  0  0  0  0  0  0  0  0
    3.8296   -3.8023    0.0000 C   0  0  0  0  0  0  0  0  0  0  0  0
    4.9786   -2.8381    0.0000 C   0  0  0  0  0  0  0  0  0  0  0  0
    4.7181   -1.3609    0.0000 C   0  0  0  0  0  0  0  0  0  0  0  0
    3.3086   -0.8479    0.0000 C   0  0  0  0  0  0  0  0  0  0  0  0
    3.0481    0.6293    0.0000 O   0  0  0  0  0  0  0  0  0  0  0  0
    1.5000    0.0000    0.0000 N   0  0  0  0  0  0  0  0  0  0  0  0
    0.7500    1.2990    0.0000 N   0  0  0  0  0  4  0  0  0  0  0  0
    1.5000    2.5981    0.0000 C   0  0  0  0  0  0  0  0  0  0  0  0
    0.7500    3.8971    0.0000 C   0  0  0  0  0  0  0  0  0  0  0  0
    1.5000    5.1962    0.0000 C   0  0  0  0  0  0  0  0  0  0  0  0
    0.7500    6.4952    0.0000 C   0  0  0  0  0  0  0  0  0  0  0  0
    1.5000    7.7942    0.0000 Br  0  0  0  0  0  0  0  0  0  0  0  0
   -0.7500    6.4952    0.0000 C   0  0  0  0  0  0  0  0  0  0  0  0
   -1.5000    7.7942    0.0000 O   0  0  0  0  0  0  0  0  0  0  0  0
   -1.5000    5.1962    0.0000 C   0  0  0  0  0  0  0  0  0  0  0  0
   -0.7500    3.8971    0.0000 C   0  0  0  0  0  0  0  0  0  0  0  0
   -1.5000    2.5981    0.0000 C   0  0  0  0  0  0  0  0  0  0  0  0
   -0.7500    1.2990    0.0000 C   0  0  0  0  0  0  0  0  0  0  0  0
   -1.5000    0.0000    0.0000 C   0  0  0  0  0  0  0  0  0  0  0  0
   -0.7500   -1.2990    0.0000 O   0  0  0  0  0  0  0  0  0  0  0  0
  1  2  2  0
  2  3  1  1
  3  4  2  0
  4  5  1  0
  5  6  2  0
  6  7  1  0
  7  8  2  0
  8  9  1  0
  2 10  1  0
 10 11  1  0
 11 12  1  0
 13 12  1  1
 13 14  1  0
 14 15  2  0
 15 16  1  0
 15 17  1  0
 17 18  1  0
 17 19  2  0
 19 20  1  0
 20 21  1  1
 22 21  1  1
 22 23  1  0
 23 24  1  0
 24  2  1  0
  8  3  1  0
 22 11  1  0
 20 13  1  0
M  CHG  1  11   1
M  END
>  <Compound_ID>  (111) 
C39467324

>  <Active>  (111) 
0

>  <Smiles>  (111) 
O=[P@@]1(c2ccccc2O)N[NH+]2C[C@@H]3C=C(Br)C(O)=C[C@@H]3C[C@@H]2CO1

>  <canonical_smi>  (111) 
O=[P@@]1(c2ccccc2O)N[NH+]2C[C@@H]3C=C(Br)C(O)=C[C@@H]3C[C@@H]2CO1

>  <Set>  (111) 
G2 inactive

>  <Set_type>  (111) 
Test

>  <MW>  (111) 
414.22

>  <HBD>  (111) 
4

>  <HBA>  (111) 
5

>  <NRB>  (111) 
1

>  <NR>  (111) 
4

>  <NAR>  (111) 
1

>  <PSA>  (111) 
83.23

>  <Standard Type>  (111) 
nan

>  <Standard Relation>  (111) 
nan

>  <Standard Units>  (111) 
nan

>  <Standard Value>  (111) 
nan

>  <Assay ChEMBL ID>  (111) 
nan

>  <Assay Description>  (111) 
nan

>  <BAO Label>  (111) 
nan

>  <bits>  (111) 
<rdkit.DataStructs.cDataStructs.ExplicitBitVect object at 0x000001A37F959770>

>  <Group>  (111) 
G2

$$$$

     RDKit          2D

 32 36  0  0  0  0  0  0  0  0999 V2000
    3.0000   -3.6962    0.0000 O   0  0  0  0  0  0  0  0  0  0  0  0
    3.0000   -5.1962    0.0000 S   0  0  0  0  0  0  0  0  0  0  0  0
    3.0000   -6.6962    0.0000 O   0  0  0  0  0  0  0  0  0  0  0  0
    1.5000   -5.1962    0.0000 N   0  0  0  0  0  0  0  0  0  0  0  0
    0.7500   -3.8971    0.0000 C   0  0  0  0  0  0  0  0  0  0  0  0
    1.5000   -2.5981    0.0000 N   0  0  0  0  0  0  0  0  0  0  0  0
    0.7500   -1.2990    0.0000 C   0  0  0  0  0  0  0  0  0  0  0  0
    1.5000    0.0000    0.0000 C   0  0  0  0  0  0  0  0  0  0  0  0
    0.7500    1.2990    0.0000 C   0  0  0  0  0  0  0  0  0  0  0  0
   -0.7500    1.2990    0.0000 C   0  0  0  0  0  0  0  0  0  0  0  0
   -1.5000    0.0000    0.0000 C   0  0  0  0  0  0  0  0  0  0  0  0
   -0.7500   -1.2990    0.0000 C   0  0  0  0  0  0  0  0  0  0  0  0
   -1.5000   -2.5981    0.0000 N   0  0  0  0  0  4  0  0  0  0  0  0
   -0.7500   -3.8971    0.0000 C   0  0  0  0  0  0  0  0  0  0  0  0
   -1.5000   -5.1962    0.0000 N   0  0  0  0  0  0  0  0  0  0  0  0
   -3.0000   -5.1962    0.0000 C   0  0  0  0  0  0  0  0  0  0  0  0
   -3.7500   -3.8971    0.0000 C   0  0  0  0  0  0  0  0  0  0  0  0
   -5.2500   -3.8971    0.0000 C   0  0  0  0  0  0  0  0  0  0  0  0
   -6.0000   -5.1962    0.0000 C   0  0  0  0  0  0  0  0  0  0  0  0
   -7.5000   -5.1962    0.0000 Cl  0  0  0  0  0  0  0  0  0  0  0  0
   -5.2500   -6.4952    0.0000 C   0  0  0  0  0  0  0  0  0  0  0  0
   -6.0000   -7.7942    0.0000 Cl  0  0  0  0  0  0  0  0  0  0  0  0
   -3.7500   -6.4952    0.0000 C   0  0  0  0  0  0  0  0  0  0  0  0
    4.5000   -5.1962    0.0000 C   0  0  0  0  0  0  0  0  0  0  0  0
    5.2500   -3.8971    0.0000 C   0  0  0  0  0  0  0  0  0  0  0  0
    6.7500   -3.8971    0.0000 C   0  0  0  0  0  0  0  0  0  0  0  0
    7.5000   -5.1962    0.0000 C   0  0  0  0  0  0  0  0  0  0  0  0
    6.7500   -6.4952    0.0000 C   0  0  0  0  0  0  0  0  0  0  0  0
    7.2135   -7.9218    0.0000 N   0  0  0  0  0  0  0  0  0  0  0  0
    6.0000   -8.8035    0.0000 S   0  0  0  0  0  0  0  0  0  0  0  0
    4.7865   -7.9218    0.0000 N   0  0  0  0  0  0  0  0  0  0  0  0
    5.2500   -6.4952    0.0000 C   0  0  0  0  0  0  0  0  0  0  0  0
  1  2  2  0
  2  3  2  0
  2  4  1  0
  4  5  2  0
  5  6  1  0
  6  7  2  0
  7  8  1  0
  8  9  2  0
  9 10  1  0
 10 11  2  0
 11 12  1  0
 12 13  2  0
 13 14  1  0
 14 15  1  1
 15 16  1  0
 16 17  2  0
 17 18  1  0
 18 19  2  0
 19 20  1  0
 19 21  1  0
 21 22  1  0
 21 23  2  0
  2 24  1  0
 24 25  2  0
 25 26  1  0
 26 27  2  0
 27 28  1  0
 28 29  2  0
 29 30  1  0
 30 31  1  0
 31 32  2  0
 14  5  1  0
 23 16  1  0
 32 24  1  0
 12  7  1  0
 32 28  1  0
M  CHG  1  13   1
M  END
>  <Compound_ID>  (112) 
C39977012

>  <Active>  (112) 
0

>  <Smiles>  (112) 
O=S(=O)(/N=C1\N=c2ccccc2=[NH+][C@@H]1Nc1ccc(Cl)c(Cl)c1)c1cccc2nsnc12

>  <canonical_smi>  (112) 
O=S(=O)(/N=C1\N=c2ccccc2=[NH+][C@@H]1Nc1ccc(Cl)c(Cl)c1)c1cccc2nsnc12

>  <Set>  (112) 
G2 inactive

>  <Set_type>  (112) 
Test

>  <MW>  (112) 
504.4

>  <HBD>  (112) 
2

>  <HBA>  (112) 
5

>  <NRB>  (112) 
4

>  <NR>  (112) 
5

>  <NAR>  (112) 
4

>  <PSA>  (112) 
110.64

>  <Standard Type>  (112) 
nan

>  <Standard Relation>  (112) 
nan

>  <Standard Units>  (112) 
nan

>  <Standard Value>  (112) 
nan

>  <Assay ChEMBL ID>  (112) 
nan

>  <Assay Description>  (112) 
nan

>  <BAO Label>  (112) 
nan

>  <bits>  (112) 
<rdkit.DataStructs.cDataStructs.ExplicitBitVect object at 0x000001A37F959620>

>  <Group>  (112) 
G2

$$$$

     RDKit          2D

 21 23  0  0  0  0  0  0  0  0999 V2000
   -0.9196   11.8882    0.0000 C   0  0  0  0  0  0  0  0  0  0  0  0
   -0.4561   10.4616    0.0000 C   0  0  0  0  0  0  0  0  0  0  0  0
    1.0111   10.1498    0.0000 C   0  0  0  0  0  0  0  0  0  0  0  0
    1.4746    8.7232    0.0000 C   0  0  0  0  0  0  0  0  0  0  0  0
    0.4709    7.6085    0.0000 C   0  0  0  0  0  0  0  0  0  0  0  0
    0.9345    6.1819    0.0000 C   0  0  0  0  0  0  0  0  0  0  0  0
    2.4017    5.8700    0.0000 N   0  0  0  0  0  4  0  0  0  0  0  0
   -0.0692    5.0672    0.0000 C   0  0  0  0  0  0  0  0  0  0  0  0
    0.3943    3.6406    0.0000 N   0  0  0  0  0  0  0  0  0  0  0  0
    1.8209    3.1771    0.0000 C   0  0  0  0  0  0  0  0  0  0  0  0
    3.0344    4.0587    0.0000 O   0  0  0  0  0  0  0  0  0  0  0  0
    1.8209    1.6771    0.0000 N   0  0  0  0  0  0  0  0  0  0  0  0
    0.3943    1.2135    0.0000 C   0  0  0  0  0  0  0  0  0  0  0  0
    1.2760    0.0000    0.0000 C   0  0  0  0  0  0  0  0  0  0  0  0
    0.3943   -1.2135    0.0000 C   0  0  0  0  0  0  0  0  0  0  0  0
   -1.0323   -0.7500    0.0000 C   0  0  0  0  0  0  0  0  0  0  0  0
   -1.0323    0.7500    0.0000 C   0  0  0  0  0  0  0  0  0  0  0  0
   -0.4874    2.4271    0.0000 C   0  0  0  0  0  0  0  0  0  0  0  0
   -1.9874    2.4271    0.0000 O   0  0  0  0  0  0  0  0  0  0  0  0
   -0.9963    7.9203    0.0000 C   0  0  0  0  0  0  0  0  0  0  0  0
   -1.4598    9.3469    0.0000 C   0  0  0  0  0  0  0  0  0  0  0  0
  1  2  1  0
  2  3  2  0
  3  4  1  0
  4  5  2  0
  5  6  1  0
  6  7  1  1
  6  8  1  0
  8  9  1  0
  9 10  1  0
 10 11  2  0
 10 12  1  0
 12 13  1  0
 13 14  1  0
 14 15  1  0
 15 16  1  0
 16 17  1  0
 13 18  1  0
 18 19  2  0
  5 20  1  0
 20 21  2  0
 21  2  1  0
 18  9  1  0
 17 13  1  0
M  CHG  1   7   1
M  END
>  <Compound_ID>  (113) 
C19278135

>  <Active>  (113) 
0

>  <Smiles>  (113) 
Cc1ccc([C@@H]([NH3+])CN2C(=O)NC3(CCCC3)C2=O)cc1

>  <canonical_smi>  (113) 
Cc1ccc([C@@H]([NH3+])CN2C(=O)NC3(CCCC3)C2=O)cc1

>  <Set>  (113) 
G2 inactive

>  <Set_type>  (113) 
Test

>  <MW>  (113) 
288.37

>  <HBD>  (113) 
2

>  <HBA>  (113) 
2

>  <NRB>  (113) 
3

>  <NR>  (113) 
3

>  <NAR>  (113) 
1

>  <PSA>  (113) 
77.05

>  <Standard Type>  (113) 
nan

>  <Standard Relation>  (113) 
nan

>  <Standard Units>  (113) 
nan

>  <Standard Value>  (113) 
nan

>  <Assay ChEMBL ID>  (113) 
nan

>  <Assay Description>  (113) 
nan

>  <BAO Label>  (113) 
nan

>  <bits>  (113) 
<rdkit.DataStructs.cDataStructs.ExplicitBitVect object at 0x000001A37F959A80>

>  <Group>  (113) 
G2

$$$$

     RDKit          2D

 27 29  0  0  0  0  0  0  0  0999 V2000
    3.0000    0.0000    0.0000 C   0  0  0  0  0  0  0  0  0  0  0  0
    1.5000    0.0000    0.0000 C   0  0  0  0  0  0  0  0  0  0  0  0
    0.7500   -1.2990    0.0000 C   0  0  0  0  0  0  0  0  0  0  0  0
   -0.7500   -1.2990    0.0000 C   0  0  0  0  0  0  0  0  0  0  0  0
   -1.5000    0.0000    0.0000 C   0  0  0  0  0  0  0  0  0  0  0  0
   -3.0000    0.0000    0.0000 N   0  0  0  0  0  0  0  0  0  0  0  0
   -3.7500    1.2990    0.0000 N   0  0  0  0  0  0  0  0  0  0  0  0
   -3.0000    2.5981    0.0000 C   0  0  0  0  0  0  0  0  0  0  0  0
   -1.5000    2.5981    0.0000 C   0  0  0  0  0  0  0  0  0  0  0  0
   -0.7500    3.8971    0.0000 C   0  0  0  0  0  0  0  0  0  0  0  0
    0.7500    3.8971    0.0000 C   0  0  0  0  0  0  0  0  0  0  0  0
   -1.5000    5.1962    0.0000 C   0  0  0  0  0  0  0  0  0  0  0  0
   -3.0000    5.1962    0.0000 C   0  0  0  0  0  0  0  0  0  0  0  0
   -3.7500    3.8971    0.0000 C   0  0  0  0  0  0  0  0  0  0  0  0
   -5.2500    3.8971    0.0000 N   0  0  0  0  0  0  0  0  0  0  0  0
   -6.0000    5.1962    0.0000 C   0  0  0  0  0  0  0  0  0  0  0  0
   -5.2500    6.4952    0.0000 O   0  0  0  0  0  0  0  0  0  0  0  0
   -6.0000    7.7942    0.0000 C   0  0  0  0  0  0  0  0  0  0  0  0
   -5.2500    9.0933    0.0000 C   0  0  0  0  0  0  0  0  0  0  0  0
   -7.5000    7.7942    0.0000 C   0  0  0  0  0  0  0  0  0  0  0  0
   -8.2500    9.0933    0.0000 O   0  0  0  0  0  0  0  0  0  0  0  0
   -8.2500    6.4952    0.0000 C   0  0  0  0  0  0  0  0  0  0  0  0
   -9.7500    6.4952    0.0000 O   0  0  0  0  0  0  0  0  0  0  0  0
   -7.5000    5.1962    0.0000 C   0  0  0  0  0  0  0  0  0  0  0  0
   -8.2500    3.8971    0.0000 O   0  0  0  0  0  0  0  0  0  0  0  0
   -0.7500    1.2990    0.0000 C   0  0  0  0  0  0  0  0  0  0  0  0
    0.7500    1.2990    0.0000 C   0  0  0  0  0  0  0  0  0  0  0  0
  1  2  1  0
  2  3  2  0
  3  4  1  0
  4  5  2  0
  5  6  1  0
  6  7  2  0
  7  8  1  0
  8  9  2  0
  9 10  1  0
 10 11  1  0
 10 12  2  0
 12 13  1  0
 13 14  2  0
 14 15  1  0
 16 15  1  1
 16 17  1  0
 17 18  1  0
 18 19  1  6
 18 20  1  0
 20 21  1  6
 20 22  1  0
 22 23  1  6
 22 24  1  0
 24 25  1  6
  5 26  1  0
 26 27  2  0
 27  2  1  0
 14  8  1  0
 24 16  1  0
M  END
>  <Compound_ID>  (114) 
C04959822

>  <Active>  (114) 
0

>  <Smiles>  (114) 
Cc1ccc(/N=N\c2cc(C)ccc2N[C@@H]2O[C@@H](C)[C@@H](O)[C@@H](O)[C@H]2O)cc1

>  <canonical_smi>  (114) 
Cc1ccc(/N=N\c2cc(C)ccc2N[C@@H]2O[C@@H](C)[C@@H](O)[C@@H](O)[C@H]2O)cc1

>  <Set>  (114) 
G2 inactive

>  <Set_type>  (114) 
Test

>  <MW>  (114) 
371.44

>  <HBD>  (114) 
4

>  <HBA>  (114) 
5

>  <NRB>  (114) 
4

>  <NR>  (114) 
3

>  <NAR>  (114) 
2

>  <PSA>  (114) 
106.67

>  <Standard Type>  (114) 
nan

>  <Standard Relation>  (114) 
nan

>  <Standard Units>  (114) 
nan

>  <Standard Value>  (114) 
nan

>  <Assay ChEMBL ID>  (114) 
nan

>  <Assay Description>  (114) 
nan

>  <BAO Label>  (114) 
nan

>  <bits>  (114) 
<rdkit.DataStructs.cDataStructs.ExplicitBitVect object at 0x000001A37F9599A0>

>  <Group>  (114) 
G2

$$$$

     RDKit          2D

 20 21  0  0  0  0  0  0  0  0999 V2000
    6.0000   -5.1962    0.0000 C   0  0  0  0  0  0  0  0  0  0  0  0
    4.5000   -5.1962    0.0000 C   0  0  0  0  0  0  0  0  0  0  0  0
    3.7500   -3.8971    0.0000 C   0  0  0  0  0  0  0  0  0  0  0  0
    2.2500   -3.8971    0.0000 N   0  0  0  0  0  0  0  0  0  0  0  0
    1.5000   -2.5981    0.0000 S   0  0  0  0  0  0  0  0  0  0  0  0
    2.7990   -1.8481    0.0000 O   0  0  0  0  0  0  0  0  0  0  0  0
    0.2010   -3.3481    0.0000 O   0  0  0  0  0  0  0  0  0  0  0  0
    0.7500   -1.2990    0.0000 N   0  0  0  0  0  0  0  0  0  0  0  0
    1.5000    0.0000    0.0000 C   0  0  0  0  0  0  0  0  0  0  0  0
    0.7500    1.2990    0.0000 C   0  0  0  0  0  0  0  0  0  0  0  0
   -0.7500    1.2990    0.0000 N   0  0  0  0  0  4  0  0  0  0  0  0
   -1.5000    0.0000    0.0000 C   0  0  0  0  0  0  0  0  0  0  0  0
   -0.7500   -1.2990    0.0000 C   0  0  0  0  0  0  0  0  0  0  0  0
    3.7500   -6.4952    0.0000 C   0  0  0  0  0  0  0  0  0  0  0  0
    4.5000   -7.7942    0.0000 N   0  0  0  0  0  4  0  0  0  0  0  0
    3.7500   -9.0933    0.0000 C   0  0  0  0  0  0  0  0  0  0  0  0
    4.5000  -10.3923    0.0000 C   0  0  0  0  0  0  0  0  0  0  0  0
    6.0000  -10.3923    0.0000 C   0  0  0  0  0  0  0  0  0  0  0  0
    6.7500   -9.0933    0.0000 C   0  0  0  0  0  0  0  0  0  0  0  0
    6.0000   -7.7942    0.0000 C   0  0  0  0  0  0  0  0  0  0  0  0
  2  1  1  1
  2  3  1  0
  3  4  1  0
  4  5  1  0
  5  6  2  0
  5  7  2  0
  5  8  1  0
  8  9  1  0
  9 10  1  0
 10 11  1  0
 11 12  1  0
 12 13  1  0
  2 14  1  0
 14 15  1  0
 15 16  1  0
 16 17  1  0
 17 18  1  0
 18 19  1  0
 19 20  1  0
 13  8  1  0
 20 15  1  0
M  CHG  2  11   1  15   1
M  END
>  <Compound_ID>  (115) 
C40862215

>  <Active>  (115) 
0

>  <Smiles>  (115) 
C[C@H](CNS(=O)(=O)N1CC[NH2+]CC1)C[NH+]1CCCCC1

>  <canonical_smi>  (115) 
C[C@H](CNS(=O)(=O)N1CC[NH2+]CC1)C[NH+]1CCCCC1

>  <Set>  (115) 
G2 inactive

>  <Set_type>  (115) 
Test

>  <MW>  (115) 
306.48

>  <HBD>  (115) 
3

>  <HBA>  (115) 
2

>  <NRB>  (115) 
6

>  <NR>  (115) 
2

>  <NAR>  (115) 
0

>  <PSA>  (115) 
70.46

>  <Standard Type>  (115) 
nan

>  <Standard Relation>  (115) 
nan

>  <Standard Units>  (115) 
nan

>  <Standard Value>  (115) 
nan

>  <Assay ChEMBL ID>  (115) 
nan

>  <Assay Description>  (115) 
nan

>  <BAO Label>  (115) 
nan

>  <bits>  (115) 
<rdkit.DataStructs.cDataStructs.ExplicitBitVect object at 0x000001A37F959700>

>  <Group>  (115) 
G2

$$$$

     RDKit          2D

 38 42  0  0  0  0  0  0  0  0999 V2000
    3.7500   -1.2990    0.0000 C   0  0  0  0  0  0  0  0  0  0  0  0
    3.0000    0.0000    0.0000 C   0  0  0  0  0  0  0  0  0  0  0  0
    1.5000    0.0000    0.0000 C   0  0  0  0  0  0  0  0  0  0  0  0
    0.7500   -1.2990    0.0000 C   0  0  0  0  0  0  0  0  0  0  0  0
   -0.7500   -1.2990    0.0000 C   0  0  0  0  0  0  0  0  0  0  0  0
   -1.5000    0.0000    0.0000 C   0  0  0  0  0  0  0  0  0  0  0  0
   -3.0000    0.0000    0.0000 O   0  0  0  0  0  0  0  0  0  0  0  0
   -3.7500    1.2990    0.0000 C   0  0  0  0  0  0  0  0  0  0  0  0
   -3.0000    2.5981    0.0000 C   0  0  0  0  0  0  0  0  0  0  0  0
   -1.5000    2.5981    0.0000 C   0  0  0  0  0  0  0  0  0  0  0  0
   -0.7500    3.8971    0.0000 O   0  0  0  0  0  0  0  0  0  0  0  0
   -0.7500    1.2990    0.0000 C   0  0  0  0  0  0  0  0  0  0  0  0
    0.7500    1.2990    0.0000 C   0  0  0  0  0  0  0  0  0  0  0  0
   -4.0037    3.7128    0.0000 C   0  0  0  0  0  0  0  0  0  0  0  0
   -3.6918    5.1800    0.0000 C   0  0  0  0  0  0  0  0  0  0  0  0
   -2.2652    5.6435    0.0000 C   0  0  0  0  0  0  0  0  0  0  0  0
   -1.9534    7.1108    0.0000 C   0  0  0  0  0  0  0  0  0  0  0  0
   -3.0681    8.1145    0.0000 C   0  0  0  0  0  0  0  0  0  0  0  0
   -4.4947    7.6509    0.0000 C   0  0  0  0  0  0  0  0  0  0  0  0
   -5.6094    8.6546    0.0000 O   0  0  0  0  0  0  0  0  0  0  0  0
   -5.2975   10.1218    0.0000 C   0  0  0  0  0  0  0  0  0  0  0  0
   -6.4122   11.1255    0.0000 C   0  0  0  0  0  0  0  0  0  0  0  0
   -6.1004   12.5928    0.0000 C   0  0  0  0  0  0  0  0  0  0  0  0
   -7.2151   13.5965    0.0000 C   0  0  0  0  0  0  0  0  0  0  0  0
   -8.6417   13.1329    0.0000 C   0  0  0  0  0  0  0  0  0  0  0  0
   -9.7564   14.1366    0.0000 Cl  0  0  0  0  0  0  0  0  0  0  0  0
   -8.9535   11.6657    0.0000 C   0  0  0  0  0  0  0  0  0  0  0  0
   -7.8388   10.6620    0.0000 C   0  0  0  0  0  0  0  0  0  0  0  0
   -4.8065    6.1837    0.0000 C   0  0  0  0  0  0  0  0  0  0  0  0
   -5.3740    3.1027    0.0000 N   0  0  0  0  0  0  0  0  0  0  0  0
   -6.6731    3.8527    0.0000 C   0  0  0  0  0  0  0  0  0  0  0  0
   -7.9721    3.1027    0.0000 C   0  0  0  0  0  0  0  0  0  0  0  0
   -9.2711    3.8527    0.0000 C   0  0  0  0  0  0  0  0  0  0  0  0
  -10.5702    3.1027    0.0000 N   0  0  0  0  0  4  0  0  0  0  0  0
  -11.8692    3.8527    0.0000 C   0  0  0  0  0  0  0  0  0  0  0  0
  -10.5702    1.6027    0.0000 C   0  0  0  0  0  0  0  0  0  0  0  0
   -5.2172    1.6109    0.0000 C   0  0  0  0  0  0  0  0  0  0  0  0
   -6.3319    0.6072    0.0000 O   0  0  0  0  0  0  0  0  0  0  0  0
  1  2  1  0
  2  3  1  0
  3  4  2  0
  4  5  1  0
  5  6  2  0
  6  7  1  0
  7  8  1  0
  8  9  2  0
  9 10  1  0
 10 11  2  0
 10 12  1  0
 12 13  2  0
  9 14  1  0
 14 15  1  1
 15 16  2  0
 16 17  1  0
 17 18  2  0
 18 19  1  0
 19 20  1  0
 20 21  1  0
 21 22  1  0
 22 23  2  0
 23 24  1  0
 24 25  2  0
 25 26  1  0
 25 27  1  0
 27 28  2  0
 19 29  2  0
 14 30  1  0
 30 31  1  0
 31 32  1  0
 32 33  1  0
 33 34  1  0
 34 35  1  0
 34 36  1  0
 30 37  1  0
 37 38  2  0
 13  3  1  0
 29 15  1  0
 12  6  1  0
 28 22  1  0
 37  8  1  0
M  CHG  1  34   1
M  END
>  <Compound_ID>  (116) 
C40561838

>  <Active>  (116) 
0

>  <Smiles>  (116) 
CCc1ccc2oc3c(c(=O)c2c1)[C@H](c1cccc(OCc2ccc(Cl)cc2)c1)N(CCC[NH+](C)C)C3=O

>  <canonical_smi>  (116) 
CCc1ccc2oc3c(c(=O)c2c1)[C@H](c1cccc(OCc2ccc(Cl)cc2)c1)N(CCC[NH+](C)C)C3=O

>  <Set>  (116) 
G2 inactive

>  <Set_type>  (116) 
Test

>  <MW>  (116) 
532.06

>  <HBD>  (116) 
1

>  <HBA>  (116) 
4

>  <NRB>  (116) 
9

>  <NR>  (116) 
5

>  <NAR>  (116) 
4

>  <PSA>  (116) 
64.19

>  <Standard Type>  (116) 
nan

>  <Standard Relation>  (116) 
nan

>  <Standard Units>  (116) 
nan

>  <Standard Value>  (116) 
nan

>  <Assay ChEMBL ID>  (116) 
nan

>  <Assay Description>  (116) 
nan

>  <BAO Label>  (116) 
nan

>  <bits>  (116) 
<rdkit.DataStructs.cDataStructs.ExplicitBitVect object at 0x000001A37F959930>

>  <Group>  (116) 
G2

$$$$

     RDKit          2D

 26 29  0  0  0  0  0  0  0  0999 V2000
   -7.5000   -5.1962    0.0000 O   0  0  0  0  0  0  0  0  0  0  0  0
   -6.0000   -5.1962    0.0000 C   0  0  0  0  0  0  0  0  0  0  0  0
   -5.2500   -3.8971    0.0000 C   0  0  0  0  0  0  0  0  0  0  0  0
   -3.7500   -3.8971    0.0000 C   0  0  0  0  0  0  0  0  0  0  0  0
   -3.0000   -5.1962    0.0000 C   0  0  0  0  0  0  0  0  0  0  0  0
   -1.5000   -5.1962    0.0000 N   0  0  0  0  0  0  0  0  0  0  0  0
   -0.7500   -3.8971    0.0000 C   0  0  0  0  0  0  0  0  0  0  0  0
    0.7500   -3.8971    0.0000 N   0  0  0  0  0  0  0  0  0  0  0  0
    1.5000   -2.5981    0.0000 C   0  0  0  0  0  0  0  0  0  0  0  0
    3.0000   -2.5981    0.0000 N   0  0  0  0  0  0  0  0  0  0  0  0
    3.7500   -3.8971    0.0000 C   0  0  0  0  0  0  0  0  0  0  0  0
    3.0000   -5.1962    0.0000 C   0  0  0  0  0  0  0  0  0  0  0  0
    3.7500   -6.4952    0.0000 C   0  0  0  0  0  0  0  0  0  0  0  0
    5.2500   -6.4952    0.0000 C   0  0  0  0  0  0  0  0  0  0  0  0
    6.0000   -7.7942    0.0000 O   0  0  0  0  0  0  0  0  0  0  0  0
    6.0000   -5.1962    0.0000 C   0  0  0  0  0  0  0  0  0  0  0  0
    5.2500   -3.8971    0.0000 C   0  0  0  0  0  0  0  0  0  0  0  0
    0.7500   -1.2990    0.0000 C   0  0  0  0  0  0  0  0  0  0  0  0
    1.5000    0.0000    0.0000 C   0  0  0  0  0  0  0  0  0  0  0  0
    0.7500    1.2990    0.0000 C   0  0  0  0  0  0  0  0  0  0  0  0
   -0.7500    1.2990    0.0000 C   0  0  0  0  0  0  0  0  0  0  0  0
   -1.5000    0.0000    0.0000 C   0  0  0  0  0  0  0  0  0  0  0  0
   -0.7500   -1.2990    0.0000 C   0  0  0  0  0  0  0  0  0  0  0  0
   -1.5000   -2.5981    0.0000 N   0  0  0  0  0  4  0  0  0  0  0  0
   -3.7500   -6.4952    0.0000 C   0  0  0  0  0  0  0  0  0  0  0  0
   -5.2500   -6.4952    0.0000 C   0  0  0  0  0  0  0  0  0  0  0  0
  1  2  1  0
  2  3  1  0
  3  4  1  0
  4  5  1  0
  5  6  1  0
  6  7  1  0
  7  8  2  0
  8  9  1  0
  9 10  1  0
 10 11  1  0
 11 12  1  0
 12 13  1  0
 13 14  1  0
 14 15  1  0
 14 16  1  0
 16 17  1  0
  9 18  2  0
 18 19  1  0
 19 20  2  0
 20 21  1  0
 21 22  2  0
 22 23  1  0
 23 24  2  0
  5 25  1  0
 25 26  1  0
 26  2  1  0
 24  7  1  0
 17 11  1  0
 23 18  1  0
M  CHG  1  24   1
M  END
>  <Compound_ID>  (117) 
C60379926

>  <Active>  (117) 
0

>  <Smiles>  (117) 
OC1CCC(Nc2nc(NC3CCC(O)CC3)c3ccccc3[nH+]2)CC1

>  <canonical_smi>  (117) 
OC1CCC(Nc2nc(NC3CCC(O)CC3)c3ccccc3[nH+]2)CC1

>  <Set>  (117) 
G2 inactive

>  <Set_type>  (117) 
Test

>  <MW>  (117) 
357.48

>  <HBD>  (117) 
4

>  <HBA>  (117) 
5

>  <NRB>  (117) 
4

>  <NR>  (117) 
4

>  <NAR>  (117) 
2

>  <PSA>  (117) 
91.55

>  <Standard Type>  (117) 
nan

>  <Standard Relation>  (117) 
nan

>  <Standard Units>  (117) 
nan

>  <Standard Value>  (117) 
nan

>  <Assay ChEMBL ID>  (117) 
nan

>  <Assay Description>  (117) 
nan

>  <BAO Label>  (117) 
nan

>  <bits>  (117) 
<rdkit.DataStructs.cDataStructs.ExplicitBitVect object at 0x000001A37F9598C0>

>  <Group>  (117) 
G2

$$$$

     RDKit          2D

 13 13  0  0  0  0  0  0  0  0999 V2000
    6.0000   -2.5981    0.0000 C   0  0  0  0  0  0  0  0  0  0  0  0
    5.2500   -1.2990    0.0000 C   0  0  0  0  0  0  0  0  0  0  0  0
    6.0000    0.0000    0.0000 C   0  0  0  0  0  0  0  0  0  0  0  0
    3.7500   -1.2990    0.0000 S   0  0  0  0  0  0  0  0  0  0  0  0
    3.0000    0.0000    0.0000 C   0  0  0  0  0  0  0  0  0  0  0  0
    1.5000    0.0000    0.0000 C   0  0  0  0  0  0  0  0  0  0  0  0
    0.7500   -1.2990    0.0000 C   0  0  0  0  0  0  0  0  0  0  0  0
   -0.7500   -1.2990    0.0000 C   0  0  0  0  0  0  0  0  0  0  0  0
   -1.5000   -2.5981    0.0000 O   0  0  0  0  0  0  0  0  0  0  0  0
   -1.5000    0.0000    0.0000 N   0  0  0  0  0  0  0  0  0  0  0  0
   -0.7500    1.2990    0.0000 C   0  0  0  0  0  0  0  0  0  0  0  0
   -1.5000    2.5981    0.0000 S   0  0  0  0  0  0  0  0  0  0  0  0
    0.7500    1.2990    0.0000 N   0  0  0  0  0  0  0  0  0  0  0  0
  1  2  1  0
  2  3  1  0
  2  4  1  0
  4  5  1  0
  5  6  1  0
  6  7  2  0
  7  8  1  0
  8  9  2  0
  8 10  1  0
 10 11  1  0
 11 12  2  0
 11 13  1  0
 13  6  1  0
M  END
>  <Compound_ID>  (118) 
C31773411

>  <Active>  (118) 
0

>  <Smiles>  (118) 
CC(C)SCc1cc(=O)[nH]c(=S)[nH]1

>  <canonical_smi>  (118) 
CC(C)SCc1cc(=O)[nH]c(=S)[nH]1

>  <Set>  (118) 
G2 inactive

>  <Set_type>  (118) 
Test

>  <MW>  (118) 
216.33

>  <HBD>  (118) 
2

>  <HBA>  (118) 
3

>  <NRB>  (118) 
3

>  <NR>  (118) 
1

>  <NAR>  (118) 
1

>  <PSA>  (118) 
48.65

>  <Standard Type>  (118) 
nan

>  <Standard Relation>  (118) 
nan

>  <Standard Units>  (118) 
nan

>  <Standard Value>  (118) 
nan

>  <Assay ChEMBL ID>  (118) 
nan

>  <Assay Description>  (118) 
nan

>  <BAO Label>  (118) 
nan

>  <bits>  (118) 
<rdkit.DataStructs.cDataStructs.ExplicitBitVect object at 0x000001A37F959850>

>  <Group>  (118) 
G2

$$$$

     RDKit          2D

 21 23  0  0  0  0  0  0  0  0999 V2000
   -9.4590    4.8414    0.0000 C   0  0  0  0  0  0  0  0  0  0  0  0
   -8.0325    5.3050    0.0000 N   0  0  0  0  0  4  0  0  0  0  0  0
   -7.7206    6.7722    0.0000 C   0  0  0  0  0  0  0  0  0  0  0  0
   -6.2940    7.2357    0.0000 C   0  0  0  0  0  0  0  0  0  0  0  0
   -5.1793    6.2320    0.0000 C   0  0  0  0  0  0  0  0  0  0  0  0
   -5.4912    4.7648    0.0000 C   0  0  0  0  0  0  0  0  0  0  0  0
   -4.3764    3.7611    0.0000 C   0  0  0  0  0  0  0  0  0  0  0  0
   -2.9499    4.2246    0.0000 N   0  0  0  0  0  0  0  0  0  0  0  0
   -1.8351    3.2209    0.0000 C   0  0  0  0  0  0  0  0  0  0  0  0
   -2.1470    1.7537    0.0000 N   0  0  0  0  0  0  0  0  0  0  0  0
   -1.0323    0.7500    0.0000 C   0  0  0  0  0  0  0  0  0  0  0  0
    0.3943    1.2135    0.0000 C   0  0  0  0  0  0  0  0  0  0  0  0
    0.7062    2.6807    0.0000 C   0  0  0  0  0  0  0  0  0  0  0  0
   -0.4086    3.6844    0.0000 C   0  0  0  0  0  0  0  0  0  0  0  0
   -0.0967    5.1517    0.0000 C   0  0  0  0  0  0  0  0  0  0  0  0
    1.3299    5.6152    0.0000 N   0  0  0  0  0  0  0  0  0  0  0  0
   -1.2114    6.1554    0.0000 S   0  0  0  0  0  0  0  0  0  0  0  0
    1.2760    0.0000    0.0000 C   0  0  0  0  0  0  0  0  0  0  0  0
    0.3943   -1.2135    0.0000 C   0  0  0  0  0  0  0  0  0  0  0  0
   -1.0323   -0.7500    0.0000 C   0  0  0  0  0  0  0  0  0  0  0  0
   -6.9177    4.3013    0.0000 C   0  0  0  0  0  0  0  0  0  0  0  0
  1  2  1  0
  2  3  1  0
  3  4  1  0
  4  5  1  0
  5  6  1  0
  6  7  1  6
  7  8  1  0
  8  9  1  0
  9 10  2  0
 10 11  1  0
 11 12  2  0
 12 13  1  0
 13 14  2  0
 14 15  1  0
 15 16  1  0
 15 17  2  0
 12 18  1  0
 18 19  1  0
 19 20  1  0
  6 21  1  0
 21  2  1  0
 14  9  1  0
 20 11  1  0
M  CHG  1   2   1
M  END
>  <Compound_ID>  (119) 
C44539164

>  <Active>  (119) 
0

>  <Smiles>  (119) 
C[NH+]1CCC[C@H](CNc2nc3c(cc2C(N)=S)CCC3)C1

>  <canonical_smi>  (119) 
C[NH+]1CCC[C@H](CNc2nc3c(cc2C(N)=S)CCC3)C1

>  <Set>  (119) 
G2 inactive

>  <Set_type>  (119) 
Test

>  <MW>  (119) 
305.47

>  <HBD>  (119) 
3

>  <HBA>  (119) 
4

>  <NRB>  (119) 
4

>  <NR>  (119) 
3

>  <NAR>  (119) 
1

>  <PSA>  (119) 
55.38

>  <Standard Type>  (119) 
nan

>  <Standard Relation>  (119) 
nan

>  <Standard Units>  (119) 
nan

>  <Standard Value>  (119) 
nan

>  <Assay ChEMBL ID>  (119) 
nan

>  <Assay Description>  (119) 
nan

>  <BAO Label>  (119) 
nan

>  <bits>  (119) 
<rdkit.DataStructs.cDataStructs.ExplicitBitVect object at 0x000001A37F9597E0>

>  <Group>  (119) 
G2

$$$$

     RDKit          2D

 18 19  0  0  0  0  0  0  0  0999 V2000
    1.5000   -5.1962    0.0000 N   0  0  0  0  0  0  0  0  0  0  0  0
    0.7500   -3.8971    0.0000 C   0  0  0  0  0  0  0  0  0  0  0  0
   -0.7500   -3.8971    0.0000 O   0  0  0  0  0  0  0  0  0  0  0  0
    1.5000   -2.5981    0.0000 C   0  0  0  0  0  0  0  0  0  0  0  0
    3.0000   -2.5981    0.0000 N   0  0  0  0  0  4  0  0  0  0  0  0
    3.7500   -3.8971    0.0000 C   0  0  0  0  0  0  0  0  0  0  0  0
    5.2418   -4.0539    0.0000 C   0  0  0  0  0  0  0  0  0  0  0  0
    5.5537   -5.5211    0.0000 C   0  0  0  0  0  0  0  0  0  0  0  0
    4.2546   -6.2711    0.0000 C   0  0  0  0  0  0  0  0  0  0  0  0
    3.1399   -5.2674    0.0000 C   0  0  0  0  0  0  0  0  0  0  0  0
    0.7500   -1.2990    0.0000 C   0  0  0  0  0  0  0  0  0  0  0  0
    1.5000    0.0000    0.0000 C   0  0  0  0  0  0  0  0  0  0  0  0
    0.7500    1.2990    0.0000 C   0  0  0  0  0  0  0  0  0  0  0  0
    1.5000    2.5981    0.0000 Cl  0  0  0  0  0  0  0  0  0  0  0  0
   -0.7500    1.2990    0.0000 C   0  0  0  0  0  0  0  0  0  0  0  0
   -1.5000    0.0000    0.0000 C   0  0  0  0  0  0  0  0  0  0  0  0
   -3.0000    0.0000    0.0000 Cl  0  0  0  0  0  0  0  0  0  0  0  0
   -0.7500   -1.2990    0.0000 C   0  0  0  0  0  0  0  0  0  0  0  0
  1  2  1  0
  2  3  2  0
  2  4  1  0
  4  5  1  1
  5  6  1  0
  6  7  1  0
  7  8  1  0
  8  9  1  0
  9 10  1  0
  4 11  1  0
 11 12  2  0
 12 13  1  0
 13 14  1  0
 13 15  2  0
 15 16  1  0
 16 17  1  0
 16 18  2  0
 10  6  1  0
 18 11  1  0
M  CHG  1   5   1
M  END
>  <Compound_ID>  (120) 
C37969113

>  <Active>  (120) 
0

>  <Smiles>  (120) 
NC(=O)[C@H]([NH2+]C1CCCC1)c1cc(Cl)cc(Cl)c1

>  <canonical_smi>  (120) 
NC(=O)[C@H]([NH2+]C1CCCC1)c1cc(Cl)cc(Cl)c1

>  <Set>  (120) 
G2 inactive

>  <Set_type>  (120) 
Test

>  <MW>  (120) 
288.2

>  <HBD>  (120) 
2

>  <HBA>  (120) 
1

>  <NRB>  (120) 
4

>  <NR>  (120) 
2

>  <NAR>  (120) 
1

>  <PSA>  (120) 
59.7

>  <Standard Type>  (120) 
nan

>  <Standard Relation>  (120) 
nan

>  <Standard Units>  (120) 
nan

>  <Standard Value>  (120) 
nan

>  <Assay ChEMBL ID>  (120) 
nan

>  <Assay Description>  (120) 
nan

>  <BAO Label>  (120) 
nan

>  <bits>  (120) 
<rdkit.DataStructs.cDataStructs.ExplicitBitVect object at 0x000001A37F959AF0>

>  <Group>  (120) 
G2

$$$$

     RDKit          2D

 14 15  0  0  0  0  0  0  0  0999 V2000
    3.2286   -0.0000    0.0000 N   0  0  0  0  0  0  0  0  0  0  0  0
    1.7286    0.0000    0.0000 C   0  0  0  0  0  0  0  0  0  0  0  0
    1.0777    1.3515    0.0000 C   0  0  0  0  0  0  0  0  0  0  0  0
   -0.3846    1.6852    0.0000 C   0  0  0  0  0  0  0  0  0  0  0  0
   -1.5574    0.7500    0.0000 C   0  0  0  0  0  0  0  0  0  0  0  0
   -1.5574   -0.7500    0.0000 C   0  0  0  0  0  0  0  0  0  0  0  0
   -0.3846   -1.6852    0.0000 C   0  0  0  0  0  0  0  0  0  0  0  0
    1.0777   -1.3515    0.0000 C   0  0  0  0  0  0  0  0  0  0  0  0
    2.0130   -2.5242    0.0000 N   0  0  0  0  0  4  0  0  0  0  0  0
    3.5115   -2.4569    0.0000 C   0  0  0  0  0  0  0  0  0  0  0  0
    4.0385   -3.8613    0.0000 C   0  0  0  0  0  0  0  0  0  0  0  0
    2.8658   -4.7965    0.0000 C   0  0  0  0  0  0  0  0  0  0  0  0
    2.9331   -6.2950    0.0000 O   0  0  0  0  0  0  0  0  0  0  0  0
    1.6139   -3.9701    0.0000 C   0  0  0  0  0  0  0  0  0  0  0  0
  2  1  1  1
  2  3  1  0
  3  4  1  0
  4  5  1  0
  5  6  1  0
  6  7  1  0
  7  8  1  0
  8  9  1  6
  9 10  1  0
 10 11  1  0
 11 12  1  0
 12 13  1  6
 12 14  1  0
  8  2  1  0
 14  9  1  0
M  CHG  1   9   1
M  END
>  <Compound_ID>  (121) 
C61711395

>  <Active>  (121) 
0

>  <Smiles>  (121) 
N[C@@H]1CCCCC[C@H]1[NH+]1CC[C@H](O)C1

>  <canonical_smi>  (121) 
N[C@@H]1CCCCC[C@H]1[NH+]1CC[C@H](O)C1

>  <Set>  (121) 
G2 inactive

>  <Set_type>  (121) 
Test

>  <MW>  (121) 
199.32

>  <HBD>  (121) 
3

>  <HBA>  (121) 
2

>  <NRB>  (121) 
1

>  <NR>  (121) 
2

>  <NAR>  (121) 
0

>  <PSA>  (121) 
50.69

>  <Standard Type>  (121) 
nan

>  <Standard Relation>  (121) 
nan

>  <Standard Units>  (121) 
nan

>  <Standard Value>  (121) 
nan

>  <Assay ChEMBL ID>  (121) 
nan

>  <Assay Description>  (121) 
nan

>  <BAO Label>  (121) 
nan

>  <bits>  (121) 
<rdkit.DataStructs.cDataStructs.ExplicitBitVect object at 0x000001A37F9595B0>

>  <Group>  (121) 
G2

$$$$

     RDKit          2D

 16 17  0  0  0  0  0  0  0  0999 V2000
    1.8478   -6.4639    0.0000 C   0  0  0  0  0  0  0  0  0  0  0  0
    2.0046   -4.9721    0.0000 C   0  0  0  0  0  0  0  0  0  0  0  0
    3.3037   -4.2221    0.0000 C   0  0  0  0  0  0  0  0  0  0  0  0
    2.9918   -2.7549    0.0000 N   0  0  0  0  0  0  0  0  0  0  0  0
    1.5000   -2.5981    0.0000 N   0  0  0  0  0  0  0  0  0  0  0  0
    0.7500   -1.2990    0.0000 C   0  0  0  0  0  0  0  0  0  0  0  0
    1.5000    0.0000    0.0000 N   0  0  0  0  0  0  0  0  0  0  0  0
    0.7500    1.2990    0.0000 C   0  0  0  0  0  0  0  0  0  0  0  0
    1.5000    2.5981    0.0000 C   0  0  0  0  0  0  0  0  0  0  0  0
   -0.7500    1.2990    0.0000 C   0  0  0  0  0  0  0  0  0  0  0  0
   -1.5000    0.0000    0.0000 C   0  0  0  0  0  0  0  0  0  0  0  0
   -0.7500   -1.2990    0.0000 C   0  0  0  0  0  0  0  0  0  0  0  0
   -1.5000   -2.5981    0.0000 C   0  0  0  0  0  0  0  0  0  0  0  0
   -3.0000   -2.5981    0.0000 N   0  0  0  0  0  0  0  0  0  0  0  0
   -0.7500   -3.8971    0.0000 N   0  0  0  0  0  4  0  0  0  0  0  0
    0.8899   -3.9684    0.0000 C   0  0  0  0  0  0  0  0  0  0  0  0
  1  2  1  0
  2  3  1  0
  3  4  2  0
  4  5  1  0
  5  6  1  0
  6  7  2  0
  7  8  1  0
  8  9  1  0
  8 10  2  0
 10 11  1  0
 11 12  2  0
 12 13  1  0
 13 14  1  0
 13 15  2  0
  5 16  1  0
 16  2  2  0
 12  6  1  0
M  CHG  1  15   1
M  END
>  <Compound_ID>  (122) 
C43401365

>  <Active>  (122) 
0

>  <Smiles>  (122) 
Cc1cnn(-c2nc(C)ccc2C(N)=[NH2+])c1

>  <canonical_smi>  (122) 
Cc1cnn(-c2nc(C)ccc2C(N)=[NH2+])c1

>  <Set>  (122) 
G2 inactive

>  <Set_type>  (122) 
Test

>  <MW>  (122) 
216.27

>  <HBD>  (122) 
2

>  <HBA>  (122) 
3

>  <NRB>  (122) 
2

>  <NR>  (122) 
2

>  <NAR>  (122) 
2

>  <PSA>  (122) 
82.32

>  <Standard Type>  (122) 
nan

>  <Standard Relation>  (122) 
nan

>  <Standard Units>  (122) 
nan

>  <Standard Value>  (122) 
nan

>  <Assay ChEMBL ID>  (122) 
nan

>  <Assay Description>  (122) 
nan

>  <BAO Label>  (122) 
nan

>  <bits>  (122) 
<rdkit.DataStructs.cDataStructs.ExplicitBitVect object at 0x000001A37F95A3B0>

>  <Group>  (122) 
G2

$$$$

     RDKit          2D

 27 29  0  0  0  0  0  0  0  0999 V2000
    3.7500   -1.2990    0.0000 C   0  0  0  0  0  0  0  0  0  0  0  0
    3.0000    0.0000    0.0000 O   0  0  0  0  0  0  0  0  0  0  0  0
    1.5000    0.0000    0.0000 C   0  0  0  0  0  0  0  0  0  0  0  0
    0.7500   -1.2990    0.0000 C   0  0  0  0  0  0  0  0  0  0  0  0
   -0.7500   -1.2990    0.0000 C   0  0  0  0  0  0  0  0  0  0  0  0
   -1.5000    0.0000    0.0000 C   0  0  0  0  0  0  0  0  0  0  0  0
   -0.7500    1.2990    0.0000 C   0  0  0  0  0  0  0  0  0  0  0  0
    0.7500    1.2990    0.0000 C   0  0  0  0  0  0  0  0  0  0  0  0
   -1.7537    2.4138    0.0000 C   0  0  0  0  0  0  0  0  0  0  0  0
   -1.4418    3.8810    0.0000 C   0  0  0  0  0  0  0  0  0  0  0  0
   -2.5565    4.8847    0.0000 C   0  0  0  0  0  0  0  0  0  0  0  0
   -2.2447    6.3519    0.0000 N   0  0  0  0  0  0  0  0  0  0  0  0
   -3.3594    7.3556    0.0000 S   0  0  0  0  0  0  0  0  0  0  0  0
   -4.3631    6.2409    0.0000 O   0  0  0  0  0  0  0  0  0  0  0  0
   -2.3557    8.4703    0.0000 O   0  0  0  0  0  0  0  0  0  0  0  0
   -4.4741    8.3593    0.0000 C   0  0  0  0  0  0  0  0  0  0  0  0
   -4.1622    9.8265    0.0000 C   0  0  0  0  0  0  0  0  0  0  0  0
   -2.7357   10.2900    0.0000 C   0  0  0  0  0  0  0  0  0  0  0  0
   -5.2770   10.8302    0.0000 N   0  0  0  0  0  0  0  0  0  0  0  0
   -6.7035   10.3667    0.0000 C   0  0  0  0  0  0  0  0  0  0  0  0
   -7.8183   11.3704    0.0000 O   0  0  0  0  0  0  0  0  0  0  0  0
   -7.0154    8.8995    0.0000 N   0  0  0  0  0  0  0  0  0  0  0  0
   -5.9007    7.8958    0.0000 C   0  0  0  0  0  0  0  0  0  0  0  0
   -6.2126    6.4285    0.0000 O   0  0  0  0  0  0  0  0  0  0  0  0
   -3.1240    1.8037    0.0000 C   0  0  0  0  0  0  0  0  0  0  0  0
   -4.4231    2.5537    0.0000 C   0  0  0  0  0  0  0  0  0  0  0  0
   -2.9672    0.3119    0.0000 N   0  0  0  0  0  4  0  0  0  0  0  0
  1  2  1  0
  2  3  1  0
  3  4  1  0
  4  5  2  0
  5  6  1  0
  6  7  1  0
  7  8  1  0
  7  9  2  0
  9 10  1  0
 10 11  1  0
 11 12  1  0
 12 13  1  0
 13 14  2  0
 13 15  2  0
 13 16  1  0
 16 17  2  0
 17 18  1  0
 17 19  1  0
 19 20  1  0
 20 21  2  0
 20 22  1  0
 22 23  1  0
 23 24  2  0
  9 25  1  0
 25 26  1  6
 25 27  1  0
  8  3  2  0
 23 16  1  0
 27  6  2  0
M  CHG  1  27   1
M  END
>  <Compound_ID>  (123) 
C63513822

>  <Active>  (123) 
0

>  <Smiles>  (123) 
COc1ccc2c(c1)=C(CCNS(=O)(=O)c1c(C)[nH]c(=O)[nH]c1=O)[C@@H](C)[NH+]=2

>  <canonical_smi>  (123) 
COc1ccc2c(c1)=C(CCNS(=O)(=O)c1c(C)[nH]c(=O)[nH]c1=O)[C@@H](C)[NH+]=2

>  <Set>  (123) 
G2 inactive

>  <Set_type>  (123) 
Test

>  <MW>  (123) 
393.45

>  <HBD>  (123) 
4

>  <HBA>  (123) 
5

>  <NRB>  (123) 
6

>  <NR>  (123) 
3

>  <NAR>  (123) 
2

>  <PSA>  (123) 
135.09

>  <Standard Type>  (123) 
nan

>  <Standard Relation>  (123) 
nan

>  <Standard Units>  (123) 
nan

>  <Standard Value>  (123) 
nan

>  <Assay ChEMBL ID>  (123) 
nan

>  <Assay Description>  (123) 
nan

>  <BAO Label>  (123) 
nan

>  <bits>  (123) 
<rdkit.DataStructs.cDataStructs.ExplicitBitVect object at 0x000001A37F93A490>

>  <Group>  (123) 
G2

$$$$

     RDKit          2D

 20 21  0  0  0  0  0  0  0  0999 V2000
   -0.9955   -4.2382    0.0000 N   0  0  0  0  0  4  0  0  0  0  0  0
    0.0082   -5.3529    0.0000 C   0  0  0  0  0  0  0  0  0  0  0  0
   -0.3037   -6.8202    0.0000 C   0  0  0  0  0  0  0  0  0  0  0  0
    0.9954   -7.5702    0.0000 C   0  0  0  0  0  0  0  0  0  0  0  0
    2.1101   -6.5665    0.0000 C   0  0  0  0  0  0  0  0  0  0  0  0
    1.5000   -5.1962    0.0000 C   0  0  0  0  0  0  0  0  0  0  0  0
    2.2500   -3.8971    0.0000 N   0  0  0  0  0  0  0  0  0  0  0  0
    1.5000   -2.5981    0.0000 S   0  0  0  0  0  0  0  0  0  0  0  0
    2.7990   -1.8481    0.0000 O   0  0  0  0  0  0  0  0  0  0  0  0
    0.2010   -3.3481    0.0000 O   0  0  0  0  0  0  0  0  0  0  0  0
    0.7500   -1.2990    0.0000 C   0  0  0  0  0  0  0  0  0  0  0  0
   -0.7500   -1.2990    0.0000 C   0  0  0  0  0  0  0  0  0  0  0  0
   -1.5000   -0.0000    0.0000 C   0  0  0  0  0  0  0  0  0  0  0  0
   -0.7500    1.2990    0.0000 C   0  0  0  0  0  0  0  0  0  0  0  0
   -1.5000    2.5981    0.0000 F   0  0  0  0  0  0  0  0  0  0  0  0
    0.7500    1.2990    0.0000 C   0  0  0  0  0  0  0  0  0  0  0  0
    1.5000   -0.0000    0.0000 C   0  0  0  0  0  0  0  0  0  0  0  0
    3.0000   -0.0000    0.0000 N   0  0  0  0  0  4  0  0  0  0  0  0
    3.7500   -1.2990    0.0000 O   0  0  0  0  0  0  0  0  0  0  0  0
    3.7500    1.2990    0.0000 O   0  0  0  0  0  1  0  0  0  0  0  0
  2  1  1  1
  2  3  1  0
  3  4  1  0
  4  5  1  0
  5  6  1  0
  6  7  1  6
  7  8  1  0
  8  9  2  0
  8 10  2  0
  8 11  1  0
 11 12  2  0
 12 13  1  0
 13 14  2  0
 14 15  1  0
 14 16  1  0
 16 17  2  0
 17 18  1  0
 18 19  2  0
 18 20  1  0
  6  2  1  0
 17 11  1  0
M  CHG  3   1   1  18   1  20  -1
M  END
>  <Compound_ID>  (124) 
C63174692

>  <Active>  (124) 
0

>  <Smiles>  (124) 
[NH3+][C@@H]1CCC[C@H]1NS(=O)(=O)c1ccc(F)cc1[N+](=O)[O-]

>  <canonical_smi>  (124) 
[NH3+][C@@H]1CCC[C@H]1NS(=O)(=O)c1ccc(F)cc1[N+](=O)[O-]

>  <Set>  (124) 
G2 inactive

>  <Set_type>  (124) 
Test

>  <MW>  (124) 
304.32

>  <HBD>  (124) 
2

>  <HBA>  (124) 
4

>  <NRB>  (124) 
4

>  <NR>  (124) 
2

>  <NAR>  (124) 
1

>  <PSA>  (124) 
116.95

>  <Standard Type>  (124) 
nan

>  <Standard Relation>  (124) 
nan

>  <Standard Units>  (124) 
nan

>  <Standard Value>  (124) 
nan

>  <Assay ChEMBL ID>  (124) 
nan

>  <Assay Description>  (124) 
nan

>  <BAO Label>  (124) 
nan

>  <bits>  (124) 
<rdkit.DataStructs.cDataStructs.ExplicitBitVect object at 0x000001A37F93A570>

>  <Group>  (124) 
G2

$$$$

     RDKit          2D

 21 23  0  0  0  0  0  0  0  0999 V2000
    5.0260    1.2990    0.0000 N   0  0  0  0  0  4  0  0  0  0  0  0
    3.5260    1.2990    0.0000 C   0  0  0  0  0  0  0  0  0  0  0  0
    2.7760    0.0000    0.0000 C   0  0  0  0  0  0  0  0  0  0  0  0
    1.2760    0.0000    0.0000 N   0  0  0  0  0  0  0  0  0  0  0  0
    0.3943    1.2135    0.0000 N   0  0  0  0  0  0  0  0  0  0  0  0
   -1.0323    0.7500    0.0000 C   0  0  0  0  0  0  0  0  0  0  0  0
   -1.0323   -0.7500    0.0000 C   0  0  0  0  0  0  0  0  0  0  0  0
   -2.1470   -1.7537    0.0000 C   0  0  0  0  0  0  0  0  0  0  0  0
   -3.5736   -1.2902    0.0000 O   0  0  0  0  0  0  0  0  0  0  0  0
   -1.8351   -3.2209    0.0000 N   0  0  0  0  0  0  0  0  0  0  0  0
   -2.9499   -4.2246    0.0000 C   0  0  0  0  0  0  0  0  0  0  0  0
   -2.6380   -5.6918    0.0000 C   0  0  0  0  0  0  0  0  0  0  0  0
   -3.7527   -6.6955    0.0000 C   0  0  0  0  0  0  0  0  0  0  0  0
   -3.4408   -8.1628    0.0000 C   0  0  0  0  0  0  0  0  0  0  0  0
   -2.0143   -8.6263    0.0000 C   0  0  0  0  0  0  0  0  0  0  0  0
   -1.7024  -10.0935    0.0000 Br  0  0  0  0  0  0  0  0  0  0  0  0
   -0.8995   -7.6226    0.0000 C   0  0  0  0  0  0  0  0  0  0  0  0
   -1.2114   -6.1554    0.0000 C   0  0  0  0  0  0  0  0  0  0  0  0
   -0.4086   -3.6844    0.0000 C   0  0  0  0  0  0  0  0  0  0  0  0
    0.7062   -2.6807    0.0000 N   0  0  0  0  0  0  0  0  0  0  0  0
    0.3943   -1.2135    0.0000 C   0  0  0  0  0  0  0  0  0  0  0  0
  1  2  1  0
  2  3  1  0
  3  4  1  0
  4  5  1  0
  5  6  2  0
  6  7  1  0
  7  8  1  0
  8  9  2  0
  8 10  1  0
 10 11  1  0
 11 12  1  0
 12 13  2  0
 13 14  1  0
 14 15  2  0
 15 16  1  0
 15 17  1  0
 17 18  2  0
 10 19  1  0
 19 20  2  0
 20 21  1  0
 21  4  1  0
 21  7  2  0
 18 12  1  0
M  CHG  1   1   1
M  END
>  <Compound_ID>  (125) 
C26421692

>  <Active>  (125) 
0

>  <Smiles>  (125) 
[NH3+]CCn1ncc2c(=O)n(Cc3ccc(Br)cc3)cnc21

>  <canonical_smi>  (125) 
[NH3+]CCn1ncc2c(=O)n(Cc3ccc(Br)cc3)cnc21

>  <Set>  (125) 
G2 inactive

>  <Set_type>  (125) 
Train

>  <MW>  (125) 
349.21

>  <HBD>  (125) 
1

>  <HBA>  (125) 
3

>  <NRB>  (125) 
4

>  <NR>  (125) 
3

>  <NAR>  (125) 
3

>  <PSA>  (125) 
80.35

>  <Standard Type>  (125) 
nan

>  <Standard Relation>  (125) 
nan

>  <Standard Units>  (125) 
nan

>  <Standard Value>  (125) 
nan

>  <Assay ChEMBL ID>  (125) 
nan

>  <Assay Description>  (125) 
nan

>  <BAO Label>  (125) 
nan

>  <bits>  (125) 
<rdkit.DataStructs.cDataStructs.ExplicitBitVect object at 0x000001A37FAD55B0>

>  <Group>  (125) 
G2

$$$$
