
     RDKit          2D

 33 38  0  0  0  0  0  0  0  0999 V2000
    1.3396   -4.9944    0.0000 C   0  0  0  0  0  0  0  0  0  0  0  0
   -0.1568   -5.0991    0.0000 C   0  0  0  0  0  0  0  0  0  0  0  0
    0.2061   -6.5545    0.0000 C   0  0  0  0  0  0  0  0  0  0  0  0
   -1.5271   -5.7092    0.0000 C   0  0  0  0  0  0  0  0  0  0  0  0
   -1.6839   -7.2010    0.0000 C   0  0  0  0  0  0  0  0  0  0  0  0
   -3.0542   -7.8111    0.0000 C   0  0  0  0  0  0  0  0  0  0  0  0
   -3.2110   -9.3029    0.0000 N   0  0  0  0  0  0  0  0  0  0  0  0
   -4.5813   -9.9130    0.0000 C   0  0  0  0  0  0  0  0  0  0  0  0
   -4.7381  -11.4047    0.0000 C   0  0  0  0  0  0  0  0  0  0  0  0
   -3.5246  -12.2864    0.0000 N   0  0  0  0  0  0  0  0  0  0  0  0
   -3.6814  -13.7782    0.0000 C   0  0  0  0  0  0  0  0  0  0  0  0
   -4.8471  -14.7222    0.0000 C   0  0  0  0  0  0  0  0  0  0  0  0
   -3.9031  -15.8879    0.0000 O   0  0  0  0  0  0  0  0  0  0  0  0
   -2.7374  -14.9439    0.0000 C   0  0  0  0  0  0  0  0  0  0  0  0
   -2.1543  -11.6763    0.0000 C   0  0  0  0  0  0  0  0  0  0  0  0
   -1.9975  -10.1845    0.0000 C   0  0  0  0  0  0  0  0  0  0  0  0
   -4.2677   -6.9294    0.0000 C   0  0  0  0  0  0  0  0  0  0  0  0
   -5.6381   -7.5395    0.0000 Br  0  0  0  0  0  0  0  0  0  0  0  0
   -4.1110   -5.4376    0.0000 C   0  0  0  0  0  0  0  0  0  0  0  0
   -2.7406   -4.8275    0.0000 C   0  0  0  0  0  0  0  0  0  0  0  0
   -2.5838   -3.3357    0.0000 C   0  0  0  0  0  0  0  0  0  0  0  0
   -3.7974   -2.4540    0.0000 O   0  0  0  0  0  0  0  0  0  0  0  0
   -1.2135   -2.7256    0.0000 C   0  0  0  0  0  0  0  0  0  0  0  0
   -0.0000   -3.6073    0.0000 C   0  0  0  0  0  0  0  0  0  0  0  0
    1.2135   -2.7256    0.0000 N   0  0  0  0  0  0  0  0  0  0  0  0
    0.7500   -1.2990    0.0000 C   0  0  0  0  0  0  0  0  0  0  0  0
    1.5000    0.0000    0.0000 C   0  0  0  0  0  0  0  0  0  0  0  0
    0.7500    1.2990    0.0000 C   0  0  0  0  0  0  0  0  0  0  0  0
    1.5000    2.5981    0.0000 C   0  0  0  0  0  0  0  0  0  0  0  0
    2.2500    3.8971    0.0000 N   0  0  0  0  0  0  0  0  0  0  0  0
   -0.7500    1.2990    0.0000 C   0  0  0  0  0  0  0  0  0  0  0  0
   -1.5000    0.0000    0.0000 C   0  0  0  0  0  0  0  0  0  0  0  0
   -0.7500   -1.2990    0.0000 C   0  0  0  0  0  0  0  0  0  0  0  0
  1  2  1  0
  2  3  1  0
  2  4  1  0
  4  5  2  0
  5  6  1  0
  6  7  1  0
  7  8  1  0
  8  9  1  0
  9 10  1  0
 10 11  1  0
 11 12  1  0
 12 13  1  0
 13 14  1  0
 10 15  1  0
 15 16  1  0
  6 17  2  0
 17 18  1  0
 17 19  1  0
 19 20  2  0
 20 21  1  0
 21 22  2  0
 21 23  1  0
 23 24  2  0
 24 25  1  0
 25 26  1  0
 26 27  2  0
 27 28  1  0
 28 29  1  0
 29 30  3  0
 28 31  2  0
 31 32  1  0
 32 33  2  0
 24  2  1  0
 33 26  1  0
 20  4  1  0
 33 23  1  0
 16  7  1  0
 14 11  1  0
M  END
>  <Compound_ID>  (1) 
CHEMBL3981472

>  <Molecule Name>  (1) 
nan

>  <Molecular Weight>  (1) 
505.42

>  <AlogP>  (1) 
4.19

>  <Smiles>  (1) 
CC1(C)c2cc(N3CCN(C4COC4)CC3)c(Br)cc2C(=O)c2c1[nH]c1cc(C#N)ccc21

>  <Standard Type>  (1) 
IC50

>  <Standard Relation>  (1) 
'='

>  <Standard Units>  (1) 
nM

>  <Standard Value>  (1) 
0.952

>  <Assay ChEMBL ID>  (1) 
CHEMBL3887074

>  <Assay Description>  (1) 
Inhibition Assay: ALK-inhibiting activity was measured by following an activity of inhibiting phosphorylation by biotinylated peptide (EGPWLEEEEEAYGWMDF). For the detection of phosphorylation of the biotinylated peptide, time-resolved fluorescence measurement was performed using an anti-phosphorylated tyrosine antibody labeled with europium cryptate and streptavidin conjugated to XL665, i.e., an allophycocyanin derivative.

>  <BAO Format ID>  (1) 
BAO_0000357

>  <BAO Label>  (1) 
single protein format

>  <Assay Organism>  (1) 
Homo sapiens

>  <Target ChEMBL ID>  (1) 
CHEMBL4247

>  <Target Name>  (1) 
ALK tyrosine kinase receptor

>  <Target Organism>  (1) 
Homo sapiens

>  <Target Type>  (1) 
SINGLE PROTEIN

>  <Document ChEMBL ID>  (1) 
CHEMBL3886150

>  <Source Description>  (1) 
BindingDB Database

>  <Document Journal>  (1) 
nan

>  <Document Year>  (1) 
2015.0

>  <Active>  (1) 
1.0

>  <bits>  (1) 
<rdkit.DataStructs.cDataStructs.ExplicitBitVect object at 0x000002422C1B6110>

>  <Group>  (1) 
G2

$$$$

     RDKit          2D

 30 34  0  0  0  0  0  0  0  0999 V2000
   -7.0084   -8.1496    0.0000 C   0  0  0  0  0  0  0  0  0  0  0  0
   -5.6381   -7.5395    0.0000 C   0  0  0  0  0  0  0  0  0  0  0  0
   -4.2677   -6.9294    0.0000 C   0  0  0  0  0  0  0  0  0  0  0  0
   -4.1110   -5.4376    0.0000 C   0  0  0  0  0  0  0  0  0  0  0  0
   -2.7406   -4.8275    0.0000 C   0  0  0  0  0  0  0  0  0  0  0  0
   -1.5271   -5.7092    0.0000 C   0  0  0  0  0  0  0  0  0  0  0  0
   -1.6839   -7.2010    0.0000 C   0  0  0  0  0  0  0  0  0  0  0  0
   -3.0542   -7.8111    0.0000 C   0  0  0  0  0  0  0  0  0  0  0  0
   -3.2110   -9.3029    0.0000 N   0  0  0  0  0  0  0  0  0  0  0  0
   -4.5813   -9.9130    0.0000 C   0  0  0  0  0  0  0  0  0  0  0  0
   -4.7381  -11.4047    0.0000 C   0  0  0  0  0  0  0  0  0  0  0  0
   -3.5246  -12.2864    0.0000 O   0  0  0  0  0  0  0  0  0  0  0  0
   -2.1543  -11.6763    0.0000 C   0  0  0  0  0  0  0  0  0  0  0  0
   -1.9975  -10.1845    0.0000 C   0  0  0  0  0  0  0  0  0  0  0  0
   -0.1568   -5.0991    0.0000 C   0  0  0  0  0  0  0  0  0  0  0  0
    1.3396   -4.9944    0.0000 C   0  0  0  0  0  0  0  0  0  0  0  0
    0.2061   -6.5545    0.0000 C   0  0  0  0  0  0  0  0  0  0  0  0
   -0.0000   -3.6073    0.0000 C   0  0  0  0  0  0  0  0  0  0  0  0
    1.2135   -2.7256    0.0000 N   0  0  0  0  0  0  0  0  0  0  0  0
    0.7500   -1.2990    0.0000 C   0  0  0  0  0  0  0  0  0  0  0  0
    1.5000    0.0000    0.0000 C   0  0  0  0  0  0  0  0  0  0  0  0
    0.7500    1.2990    0.0000 C   0  0  0  0  0  0  0  0  0  0  0  0
    1.5000    2.5981    0.0000 C   0  0  0  0  0  0  0  0  0  0  0  0
    2.2500    3.8971    0.0000 N   0  0  0  0  0  0  0  0  0  0  0  0
   -0.7500    1.2990    0.0000 C   0  0  0  0  0  0  0  0  0  0  0  0
   -1.5000    0.0000    0.0000 C   0  0  0  0  0  0  0  0  0  0  0  0
   -0.7500   -1.2990    0.0000 C   0  0  0  0  0  0  0  0  0  0  0  0
   -1.2135   -2.7256    0.0000 C   0  0  0  0  0  0  0  0  0  0  0  0
   -2.5838   -3.3357    0.0000 C   0  0  0  0  0  0  0  0  0  0  0  0
   -3.7974   -2.4540    0.0000 O   0  0  0  0  0  0  0  0  0  0  0  0
  1  2  3  0
  2  3  1  0
  3  4  2  0
  4  5  1  0
  5  6  2  0
  6  7  1  0
  7  8  2  0
  8  9  1  0
  9 10  1  0
 10 11  1  0
 11 12  1  0
 12 13  1  0
 13 14  1  0
  6 15  1  0
 15 16  1  0
 15 17  1  0
 15 18  1  0
 18 19  1  0
 19 20  1  0
 20 21  2  0
 21 22  1  0
 22 23  1  0
 23 24  3  0
 22 25  2  0
 25 26  1  0
 26 27  2  0
 27 28  1  0
 28 29  1  0
 29 30  2  0
  8  3  1  0
 14  9  1  0
 28 18  2  0
 29  5  1  0
 27 20  1  0
M  END
>  <Compound_ID>  (2) 
CHEMBL3905916

>  <Molecule Name>  (2) 
nan

>  <Molecular Weight>  (2) 
395.46

>  <AlogP>  (2) 
3.73

>  <Smiles>  (2) 
C#Cc1cc2c(cc1N1CCOCC1)C(C)(C)c1[nH]c3cc(C#N)ccc3c1C2=O

>  <Standard Type>  (2) 
IC50

>  <Standard Relation>  (2) 
'='

>  <Standard Units>  (2) 
nM

>  <Standard Value>  (2) 
2.386

>  <Assay ChEMBL ID>  (2) 
CHEMBL3887074

>  <Assay Description>  (2) 
Inhibition Assay: ALK-inhibiting activity was measured by following an activity of inhibiting phosphorylation by biotinylated peptide (EGPWLEEEEEAYGWMDF). For the detection of phosphorylation of the biotinylated peptide, time-resolved fluorescence measurement was performed using an anti-phosphorylated tyrosine antibody labeled with europium cryptate and streptavidin conjugated to XL665, i.e., an allophycocyanin derivative.

>  <BAO Format ID>  (2) 
BAO_0000357

>  <BAO Label>  (2) 
single protein format

>  <Assay Organism>  (2) 
Homo sapiens

>  <Target ChEMBL ID>  (2) 
CHEMBL4247

>  <Target Name>  (2) 
ALK tyrosine kinase receptor

>  <Target Organism>  (2) 
Homo sapiens

>  <Target Type>  (2) 
SINGLE PROTEIN

>  <Document ChEMBL ID>  (2) 
CHEMBL3886150

>  <Source Description>  (2) 
BindingDB Database

>  <Document Journal>  (2) 
nan

>  <Document Year>  (2) 
2015.0

>  <Active>  (2) 
1.0

>  <bits>  (2) 
<rdkit.DataStructs.cDataStructs.ExplicitBitVect object at 0x000002422C1B4F20>

>  <Group>  (2) 
G2

$$$$

     RDKit          2D

 39 43  0  0  0  0  0  0  0  0999 V2000
   -4.5577    0.2855    0.0000 C   0  0  0  0  0  0  0  0  0  0  0  0
   -3.4430   -0.7182    0.0000 O   0  0  0  0  0  0  0  0  0  0  0  0
   -3.7548   -2.1855    0.0000 C   0  0  0  0  0  0  0  0  0  0  0  0
   -5.1814   -2.6490    0.0000 N   0  0  0  0  0  0  0  0  0  0  0  0
   -5.4933   -4.1162    0.0000 C   0  0  0  0  0  0  0  0  0  0  0  0
   -4.3786   -5.1199    0.0000 C   0  0  0  0  0  0  0  0  0  0  0  0
   -2.9520   -4.6564    0.0000 C   0  0  0  0  0  0  0  0  0  0  0  0
   -2.6401   -3.1891    0.0000 C   0  0  0  0  0  0  0  0  0  0  0  0
   -1.2135   -2.7256    0.0000 C   0  0  0  0  0  0  0  0  0  0  0  0
   -0.0000   -3.6073    0.0000 C   0  0  0  0  0  0  0  0  0  0  0  0
    0.0000   -5.1073    0.0000 C   0  0  0  0  0  0  0  0  0  0  0  0
    1.2990   -5.8573    0.0000 N   0  0  0  0  0  0  0  0  0  0  0  0
   -1.2990   -5.8573    0.0000 O   0  0  0  0  0  0  0  0  0  0  0  0
    1.2135   -2.7256    0.0000 S   0  0  0  0  0  0  0  0  0  0  0  0
    0.7500   -1.2990    0.0000 C   0  0  0  0  0  0  0  0  0  0  0  0
    1.5000    0.0000    0.0000 C   0  0  0  0  0  0  0  0  0  0  0  0
    0.7500    1.2990    0.0000 N   0  0  0  0  0  0  0  0  0  0  0  0
   -0.7500    1.2990    0.0000 C   0  0  0  0  0  0  0  0  0  0  0  0
   -1.5000    2.5981    0.0000 N   0  0  0  0  0  0  0  0  0  0  0  0
   -0.7500    3.8971    0.0000 C   0  0  0  0  0  0  0  0  0  0  0  0
    0.7500    3.8971    0.0000 C   0  0  0  0  0  0  0  0  0  0  0  0
    1.5000    5.1962    0.0000 C   0  0  0  0  0  0  0  0  0  0  0  0
    3.0000    5.1962    0.0000 F   0  0  0  0  0  0  0  0  0  0  0  0
    0.7500    6.4952    0.0000 C   0  0  0  0  0  0  0  0  0  0  0  0
    1.5000    7.7942    0.0000 C   0  0  0  0  0  0  0  0  0  0  0  0
    3.0000    7.7942    0.0000 C   0  0  0  0  0  0  0  0  0  0  0  0
    3.7500    9.0933    0.0000 C   0  0  0  0  0  0  0  0  0  0  0  0
    3.0000   10.3923    0.0000 N   0  0  0  0  0  0  0  0  0  0  0  0
    3.7500   11.6913    0.0000 C   0  0  0  0  0  0  0  0  0  0  0  0
    1.5000   10.3923    0.0000 C   0  0  0  0  0  0  0  0  0  0  0  0
    0.7500    9.0933    0.0000 C   0  0  0  0  0  0  0  0  0  0  0  0
   -0.7500    6.4952    0.0000 C   0  0  0  0  0  0  0  0  0  0  0  0
   -1.5000    5.1962    0.0000 C   0  0  0  0  0  0  0  0  0  0  0  0
   -3.0000    5.1962    0.0000 O   0  0  0  0  0  0  0  0  0  0  0  0
   -3.7500    6.4952    0.0000 C   0  0  0  0  0  0  0  0  0  0  0  0
   -5.2500    6.4952    0.0000 C   0  0  0  0  0  0  0  0  0  0  0  0
   -3.0000    7.7942    0.0000 C   0  0  0  0  0  0  0  0  0  0  0  0
   -1.5000    0.0000    0.0000 N   0  0  0  0  0  0  0  0  0  0  0  0
   -0.7500   -1.2990    0.0000 C   0  0  0  0  0  0  0  0  0  0  0  0
  1  2  1  0
  2  3  1  0
  3  4  2  0
  4  5  1  0
  5  6  2  0
  6  7  1  0
  7  8  2  0
  8  9  1  0
  9 10  2  0
 10 11  1  0
 11 12  1  0
 11 13  2  0
 10 14  1  0
 14 15  1  0
 15 16  2  0
 16 17  1  0
 17 18  2  0
 18 19  1  0
 19 20  1  0
 20 21  2  0
 21 22  1  0
 22 23  1  0
 22 24  2  0
 24 25  1  0
 25 26  1  0
 26 27  1  0
 27 28  1  0
 28 29  1  0
 28 30  1  0
 30 31  1  0
 24 32  1  0
 32 33  2  0
 33 34  1  0
 34 35  1  0
 35 36  1  0
 35 37  1  0
 18 38  1  0
 38 39  2  0
  8  3  1  0
 39  9  1  0
 39 15  1  0
 33 20  1  0
 31 25  1  0
M  END
>  <Compound_ID>  (3) 
CHEMBL3669144

>  <Molecule Name>  (3) 
nan

>  <Molecular Weight>  (3) 
550.66

>  <AlogP>  (3) 
5.34

>  <Smiles>  (3) 
COc1ncccc1-c1c(C(N)=O)sc2cnc(Nc3cc(F)c(C4CCN(C)CC4)cc3OC(C)C)nc12

>  <Standard Type>  (3) 
IC50

>  <Standard Relation>  (3) 
'='

>  <Standard Units>  (3) 
nM

>  <Standard Value>  (3) 
3.0

>  <Assay ChEMBL ID>  (3) 
CHEMBL3705810

>  <Assay Description>  (3) 
In Vitro Inhibition Assay: The reagents used have the following composition: Enzyme buffer (EB): 50 mM HEPES (pH: 7.0) (Sigma H7523), 100 mM NaCl (Sigma S7653), NaN.sub.3 at 0.01% (Sigma S8032), BSA at 0.005% (Sigma A2153), 0.05 mM sodium orthovanadate (Calbiochem 567540). Detection buffer (DB): 50 mM HEPES (pH: 7.0), BSA at 0.1%, 0.8 M KF (Fluka 60239), 20 mM EDTA (Sigma E5134).The peptide used is the one described in Biochemistry, 2005, 44, 8533-8542; A-21-K(biotin)NH.sub.2, obtained from NeoMPS (reference SP081233). All the HTRF reagents Mab PT66-K (61T66KLB) and streptavidin-XL665 (610SAXLB), and the SEB reagent, are purchased from Cisbio.The test is carried out in a 384-well plate (Greiner 784076). The serial dilutions are carried out in pure DMSO, and then an intermediate one-in-three dilution in water is carried out, with 1 microliter of each concentration being distributed, all these operations being performed using the Zephyr apparatus (Caliper Life Sciences).

>  <BAO Format ID>  (3) 
BAO_0000357

>  <BAO Label>  (3) 
single protein format

>  <Assay Organism>  (3) 
Homo sapiens

>  <Target ChEMBL ID>  (3) 
CHEMBL4247

>  <Target Name>  (3) 
ALK tyrosine kinase receptor

>  <Target Organism>  (3) 
Homo sapiens

>  <Target Type>  (3) 
SINGLE PROTEIN

>  <Document ChEMBL ID>  (3) 
CHEMBL3639289

>  <Source Description>  (3) 
BindingDB Database

>  <Document Journal>  (3) 
nan

>  <Document Year>  (3) 
2015.0

>  <Active>  (3) 
1.0

>  <bits>  (3) 
<rdkit.DataStructs.cDataStructs.ExplicitBitVect object at 0x000002422C1B59A0>

>  <Group>  (3) 
G2

$$$$

     RDKit          2D

 42 47  0  0  0  0  0  0  0  0999 V2000
  -13.1172   -2.4957    0.0000 C   0  0  0  0  0  0  0  0  0  0  0  0
  -12.0025   -3.4994    0.0000 N   0  0  0  0  0  0  0  0  0  0  0  0
  -10.5759   -3.0359    0.0000 C   0  0  0  0  0  0  0  0  0  0  0  0
   -9.4612   -4.0396    0.0000 C   0  0  0  0  0  0  0  0  0  0  0  0
   -9.7730   -5.5068    0.0000 C   0  0  0  0  0  0  0  0  0  0  0  0
   -8.6583   -6.5105    0.0000 O   0  0  0  0  0  0  0  0  0  0  0  0
   -7.2317   -6.0469    0.0000 C   0  0  0  0  0  0  0  0  0  0  0  0
   -6.1170   -7.0506    0.0000 C   0  0  0  0  0  0  0  0  0  0  0  0
   -4.6904   -6.5871    0.0000 C   0  0  0  0  0  0  0  0  0  0  0  0
   -4.3786   -5.1199    0.0000 C   0  0  0  0  0  0  0  0  0  0  0  0
   -2.9520   -4.6564    0.0000 C   0  0  0  0  0  0  0  0  0  0  0  0
   -1.8373   -5.6601    0.0000 O   0  0  0  0  0  0  0  0  0  0  0  0
   -2.6401   -3.1891    0.0000 N   0  0  0  0  0  0  0  0  0  0  0  0
   -1.2135   -2.7256    0.0000 C   0  0  0  0  0  0  0  0  0  0  0  0
   -0.0000   -3.6073    0.0000 N   0  0  0  0  0  0  0  0  0  0  0  0
    1.2135   -2.7256    0.0000 N   0  0  0  0  0  0  0  0  0  0  0  0
    0.7500   -1.2990    0.0000 C   0  0  0  0  0  0  0  0  0  0  0  0
    1.5000    0.0000    0.0000 C   0  0  0  0  0  0  0  0  0  0  0  0
    0.7500    1.2990    0.0000 C   0  0  0  0  0  0  0  0  0  0  0  0
   -0.7500    1.2990    0.0000 C   0  0  0  0  0  0  0  0  0  0  0  0
   -1.5000    2.5981    0.0000 C   0  0  0  0  0  0  0  0  0  0  0  0
   -0.7500    3.8971    0.0000 C   0  0  0  0  0  0  0  0  0  0  0  0
    0.7500    3.8971    0.0000 C   0  0  0  0  0  0  0  0  0  0  0  0
    1.5000    5.1962    0.0000 C   0  0  0  0  0  0  0  0  0  0  0  0
    3.0000    5.1962    0.0000 F   0  0  0  0  0  0  0  0  0  0  0  0
    0.7500    6.4952    0.0000 C   0  0  0  0  0  0  0  0  0  0  0  0
   -0.7500    6.4952    0.0000 C   0  0  0  0  0  0  0  0  0  0  0  0
   -1.5000    7.7942    0.0000 F   0  0  0  0  0  0  0  0  0  0  0  0
   -1.5000    5.1962    0.0000 C   0  0  0  0  0  0  0  0  0  0  0  0
   -1.5000    0.0000    0.0000 C   0  0  0  0  0  0  0  0  0  0  0  0
   -0.7500   -1.2990    0.0000 C   0  0  0  0  0  0  0  0  0  0  0  0
   -5.4933   -4.1162    0.0000 C   0  0  0  0  0  0  0  0  0  0  0  0
   -5.1814   -2.6490    0.0000 N   0  0  0  0  0  0  0  0  0  0  0  0
   -6.2961   -1.6453    0.0000 C   0  0  0  0  0  0  0  0  0  0  0  0
   -5.9843   -0.1781    0.0000 C   0  0  0  0  0  0  0  0  0  0  0  0
   -7.0990    0.8256    0.0000 C   0  0  0  0  0  0  0  0  0  0  0  0
   -8.5256    0.3621    0.0000 O   0  0  0  0  0  0  0  0  0  0  0  0
   -8.8374   -1.1051    0.0000 C   0  0  0  0  0  0  0  0  0  0  0  0
   -7.7227   -2.1088    0.0000 C   0  0  0  0  0  0  0  0  0  0  0  0
   -6.9199   -4.5797    0.0000 C   0  0  0  0  0  0  0  0  0  0  0  0
  -11.1996   -5.9703    0.0000 C   0  0  0  0  0  0  0  0  0  0  0  0
  -12.3143   -4.9666    0.0000 C   0  0  0  0  0  0  0  0  0  0  0  0
  1  2  1  0
  2  3  1  0
  3  4  1  0
  4  5  1  0
  5  6  1  0
  6  7  1  0
  7  8  2  0
  8  9  1  0
  9 10  2  0
 10 11  1  0
 11 12  2  0
 11 13  1  0
 13 14  1  0
 14 15  2  0
 15 16  1  0
 16 17  1  0
 17 18  2  0
 18 19  1  0
 19 20  2  0
 20 21  1  0
 21 22  1  0
 22 23  2  0
 23 24  1  0
 24 25  1  0
 24 26  2  0
 26 27  1  0
 27 28  1  0
 27 29  2  0
 20 30  1  0
 30 31  2  0
 10 32  1  0
 32 33  1  0
 33 34  1  0
 34 35  1  0
 35 36  1  0
 36 37  1  0
 37 38  1  0
 38 39  1  0
 32 40  2  0
  5 41  1  0
 41 42  1  0
 42  2  1  0
 40  7  1  0
 31 14  1  0
 39 34  1  0
 31 17  1  0
 29 22  1  0
M  END
>  <Compound_ID>  (4) 
CHEMBL3806122

>  <Molecule Name>  (4) 
nan

>  <Molecular Weight>  (4) 
575.66

>  <AlogP>  (4) 
5.75

>  <Smiles>  (4) 
CN1CCC(Oc2ccc(C(=O)Nc3n[nH]c4ccc(Cc5cc(F)cc(F)c5)cc34)c(NC3CCOCC3)c2)CC1

>  <Standard Type>  (4) 
IC50

>  <Standard Relation>  (4) 
'='

>  <Standard Units>  (4) 
nM

>  <Standard Value>  (4) 
9.0

>  <Assay ChEMBL ID>  (4) 
CHEMBL3806916

>  <Assay Description>  (4) 
Inhibition of recombinant ALK (unknown origin) in presence of gamma33-ATP

>  <BAO Format ID>  (4) 
BAO_0000357

>  <BAO Label>  (4) 
single protein format

>  <Assay Organism>  (4) 
Homo sapiens

>  <Target ChEMBL ID>  (4) 
CHEMBL4247

>  <Target Name>  (4) 
ALK tyrosine kinase receptor

>  <Target Organism>  (4) 
Homo sapiens

>  <Target Type>  (4) 
SINGLE PROTEIN

>  <Document ChEMBL ID>  (4) 
CHEMBL3804811

>  <Source Description>  (4) 
Scientific Literature

>  <Document Journal>  (4) 
J Med Chem

>  <Document Year>  (4) 
2016.0

>  <Active>  (4) 
1.0

>  <bits>  (4) 
<rdkit.DataStructs.cDataStructs.ExplicitBitVect object at 0x000002422C1B7BC0>

>  <Group>  (4) 
G2

$$$$

     RDKit          2D

 34 38  0  0  0  0  0  0  0  0999 V2000
  -12.9381   -7.9010    0.0000 C   0  0  0  0  0  0  0  0  0  0  0  0
  -11.5115   -7.4375    0.0000 N   0  0  0  0  0  0  0  0  0  0  0  0
  -11.1996   -5.9703    0.0000 C   0  0  0  0  0  0  0  0  0  0  0  0
   -9.7730   -5.5068    0.0000 C   0  0  0  0  0  0  0  0  0  0  0  0
   -8.6583   -6.5105    0.0000 N   0  0  0  0  0  0  0  0  0  0  0  0
   -7.2317   -6.0469    0.0000 C   0  0  0  0  0  0  0  0  0  0  0  0
   -6.1170   -7.0506    0.0000 C   0  0  0  0  0  0  0  0  0  0  0  0
   -4.6904   -6.5871    0.0000 C   0  0  0  0  0  0  0  0  0  0  0  0
   -4.3786   -5.1199    0.0000 C   0  0  0  0  0  0  0  0  0  0  0  0
   -2.9520   -4.6564    0.0000 C   0  0  0  0  0  0  0  0  0  0  0  0
   -1.8373   -5.6601    0.0000 O   0  0  0  0  0  0  0  0  0  0  0  0
   -2.6401   -3.1891    0.0000 N   0  0  0  0  0  0  0  0  0  0  0  0
   -1.2135   -2.7256    0.0000 C   0  0  0  0  0  0  0  0  0  0  0  0
   -0.0000   -3.6073    0.0000 N   0  0  0  0  0  0  0  0  0  0  0  0
    1.2135   -2.7256    0.0000 N   0  0  0  0  0  0  0  0  0  0  0  0
    0.7500   -1.2990    0.0000 C   0  0  0  0  0  0  0  0  0  0  0  0
    1.5000    0.0000    0.0000 C   0  0  0  0  0  0  0  0  0  0  0  0
    0.7500    1.2990    0.0000 C   0  0  0  0  0  0  0  0  0  0  0  0
   -0.7500    1.2990    0.0000 C   0  0  0  0  0  0  0  0  0  0  0  0
   -1.5000    2.5981    0.0000 C   0  0  0  0  0  0  0  0  0  0  0  0
   -0.7500    3.8971    0.0000 C   0  0  0  0  0  0  0  0  0  0  0  0
    0.7500    3.8971    0.0000 C   0  0  0  0  0  0  0  0  0  0  0  0
    1.5000    5.1962    0.0000 C   0  0  0  0  0  0  0  0  0  0  0  0
    3.0000    5.1962    0.0000 F   0  0  0  0  0  0  0  0  0  0  0  0
    0.7500    6.4952    0.0000 C   0  0  0  0  0  0  0  0  0  0  0  0
   -0.7500    6.4952    0.0000 C   0  0  0  0  0  0  0  0  0  0  0  0
   -1.5000    7.7942    0.0000 F   0  0  0  0  0  0  0  0  0  0  0  0
   -1.5000    5.1962    0.0000 C   0  0  0  0  0  0  0  0  0  0  0  0
   -1.5000    0.0000    0.0000 C   0  0  0  0  0  0  0  0  0  0  0  0
   -0.7500   -1.2990    0.0000 C   0  0  0  0  0  0  0  0  0  0  0  0
   -5.4933   -4.1162    0.0000 C   0  0  0  0  0  0  0  0  0  0  0  0
   -6.9199   -4.5797    0.0000 C   0  0  0  0  0  0  0  0  0  0  0  0
   -8.9702   -7.9777    0.0000 C   0  0  0  0  0  0  0  0  0  0  0  0
  -10.3968   -8.4412    0.0000 C   0  0  0  0  0  0  0  0  0  0  0  0
  1  2  1  0
  2  3  1  0
  3  4  1  0
  4  5  1  0
  5  6  1  0
  6  7  2  0
  7  8  1  0
  8  9  2  0
  9 10  1  0
 10 11  2  0
 10 12  1  0
 12 13  1  0
 13 14  2  0
 14 15  1  0
 15 16  1  0
 16 17  2  0
 17 18  1  0
 18 19  2  0
 19 20  1  0
 20 21  1  0
 21 22  2  0
 22 23  1  0
 23 24  1  0
 23 25  2  0
 25 26  1  0
 26 27  1  0
 26 28  2  0
 19 29  1  0
 29 30  2  0
  9 31  1  0
 31 32  2  0
  5 33  1  0
 33 34  1  0
 34  2  1  0
 32  6  1  0
 30 13  1  0
 30 16  1  0
 28 21  1  0
M  END
>  <Compound_ID>  (5) 
CHEMBL3672894

>  <Molecule Name>  (5) 
nan

>  <Molecular Weight>  (5) 
461.52

>  <AlogP>  (5) 
4.44

>  <Smiles>  (5) 
CN1CCN(c2ccc(C(=O)Nc3n[nH]c4ccc(Cc5cc(F)cc(F)c5)cc34)cc2)CC1

>  <Standard Type>  (5) 
IC50

>  <Standard Relation>  (5) 
'='

>  <Standard Units>  (5) 
nM

>  <Standard Value>  (5) 
73.0

>  <Assay ChEMBL ID>  (5) 
CHEMBL3806916

>  <Assay Description>  (5) 
Inhibition of recombinant ALK (unknown origin) in presence of gamma33-ATP

>  <BAO Format ID>  (5) 
BAO_0000357

>  <BAO Label>  (5) 
single protein format

>  <Assay Organism>  (5) 
Homo sapiens

>  <Target ChEMBL ID>  (5) 
CHEMBL4247

>  <Target Name>  (5) 
ALK tyrosine kinase receptor

>  <Target Organism>  (5) 
Homo sapiens

>  <Target Type>  (5) 
SINGLE PROTEIN

>  <Document ChEMBL ID>  (5) 
CHEMBL3804811

>  <Source Description>  (5) 
Scientific Literature

>  <Document Journal>  (5) 
J Med Chem

>  <Document Year>  (5) 
2016.0

>  <Active>  (5) 
1.0

>  <bits>  (5) 
<rdkit.DataStructs.cDataStructs.ExplicitBitVect object at 0x000002422C1B4270>

>  <Group>  (5) 
G2

$$$$

     RDKit          2D

 38 42  0  0  0  0  0  0  0  0999 V2000
   -0.7500  -11.6913    0.0000 C   0  0  0  0  0  0  0  0  0  0  0  0
    0.7500  -11.6913    0.0000 O   0  0  0  0  0  0  0  0  0  0  0  0
    1.5000  -10.3923    0.0000 C   0  0  0  0  0  0  0  0  0  0  0  0
    0.7500   -9.0933    0.0000 C   0  0  0  0  0  0  0  0  0  0  0  0
    1.5000   -7.7942    0.0000 C   0  0  0  0  0  0  0  0  0  0  0  0
    3.0000   -7.7942    0.0000 N   0  0  0  0  0  0  0  0  0  0  0  0
    3.7500   -6.4952    0.0000 C   0  0  0  0  0  0  0  0  0  0  0  0
    5.2500   -6.4952    0.0000 O   0  0  0  0  0  0  0  0  0  0  0  0
    3.0000   -5.1962    0.0000 C   0  0  0  0  0  0  0  0  0  0  0  0
    3.7500   -3.8971    0.0000 C   0  0  0  0  0  0  0  0  0  0  0  0
    3.0000   -2.5981    0.0000 C   0  0  0  0  0  0  0  0  0  0  0  0
    1.5000   -2.5981    0.0000 C   0  0  0  0  0  0  0  0  0  0  0  0
    0.7500   -1.2990    0.0000 C   0  0  0  0  0  0  0  0  0  0  0  0
    1.5000    0.0000    0.0000 C   0  0  0  0  0  0  0  0  0  0  0  0
    0.7500    1.2990    0.0000 N   0  0  0  0  0  0  0  0  0  0  0  0
   -0.7500    1.2990    0.0000 C   0  0  0  0  0  0  0  0  0  0  0  0
   -1.5000    0.0000    0.0000 C   0  0  0  0  0  0  0  0  0  0  0  0
   -0.7500   -1.2990    0.0000 C   0  0  0  0  0  0  0  0  0  0  0  0
   -3.0000    0.0000    0.0000 N   0  0  0  0  0  0  0  0  0  0  0  0
   -3.7500   -1.2990    0.0000 C   0  0  0  0  0  0  0  0  0  0  0  0
   -5.2500   -1.2990    0.0000 C   0  0  0  0  0  0  0  0  0  0  0  0
   -6.0000    0.0000    0.0000 C   0  0  0  0  0  0  0  0  0  0  0  0
   -7.5000    0.0000    0.0000 C   0  0  0  0  0  0  0  0  0  0  0  0
   -8.2500    1.2990    0.0000 Cl  0  0  0  0  0  0  0  0  0  0  0  0
   -8.2500   -1.2990    0.0000 C   0  0  0  0  0  0  0  0  0  0  0  0
   -7.5000   -2.5981    0.0000 C   0  0  0  0  0  0  0  0  0  0  0  0
   -6.0000   -2.5981    0.0000 C   0  0  0  0  0  0  0  0  0  0  0  0
   -5.2500   -3.8971    0.0000 C   0  0  0  0  0  0  0  0  0  0  0  0
   -4.5000   -5.1962    0.0000 F   0  0  0  0  0  0  0  0  0  0  0  0
   -6.5490   -4.6471    0.0000 F   0  0  0  0  0  0  0  0  0  0  0  0
   -3.9510   -3.1471    0.0000 F   0  0  0  0  0  0  0  0  0  0  0  0
   -3.7500    1.2990    0.0000 C   0  0  0  0  0  0  0  0  0  0  0  0
   -3.0000    2.5981    0.0000 C   0  0  0  0  0  0  0  0  0  0  0  0
   -1.5000    2.5981    0.0000 N   0  0  0  0  0  0  0  0  0  0  0  0
    0.7500   -3.8971    0.0000 C   0  0  0  0  0  0  0  0  0  0  0  0
    1.5000   -5.1962    0.0000 C   0  0  0  0  0  0  0  0  0  0  0  0
    3.7500   -9.0933    0.0000 C   0  0  0  0  0  0  0  0  0  0  0  0
    3.0000  -10.3923    0.0000 C   0  0  0  0  0  0  0  0  0  0  0  0
  1  2  1  0
  2  3  1  0
  3  4  1  0
  4  5  1  0
  5  6  1  0
  6  7  1  0
  7  8  2  0
  7  9  1  0
  9 10  2  0
 10 11  1  0
 11 12  2  0
 12 13  1  0
 13 14  2  0
 14 15  1  0
 15 16  2  0
 16 17  1  0
 17 18  2  0
 17 19  1  0
 19 20  1  0
 20 21  1  0
 21 22  2  0
 22 23  1  0
 23 24  1  0
 23 25  2  0
 25 26  1  0
 26 27  2  0
 27 28  1  0
 28 29  1  0
 28 30  1  0
 28 31  1  0
 19 32  1  0
 32 33  1  0
 33 34  1  0
 12 35  1  0
 35 36  2  0
  6 37  1  0
 37 38  1  0
 38  3  1  0
 36  9  1  0
 18 13  1  0
 27 21  1  0
 34 16  1  0
M  END
>  <Compound_ID>  (6) 
CHEMBL1163567

>  <Molecule Name>  (6) 
nan

>  <Molecular Weight>  (6) 
545.01

>  <AlogP>  (6) 
6.10

>  <Smiles>  (6) 
COC1CCN(C(=O)c2ccc(-c3cnc4c(c3)N(Cc3cc(Cl)ccc3C(F)(F)F)CCN4)cc2)CC1

>  <Standard Type>  (6) 
IC50

>  <Standard Relation>  (6) 
'='

>  <Standard Units>  (6) 
nM

>  <Standard Value>  (6) 
40.0

>  <Assay ChEMBL ID>  (6) 
CHEMBL1168570

>  <Assay Description>  (6) 
Inhibition of ALK by time-resolved fluorescence assay

>  <BAO Format ID>  (6) 
BAO_0000357

>  <BAO Label>  (6) 
single protein format

>  <Assay Organism>  (6) 
None

>  <Target ChEMBL ID>  (6) 
CHEMBL4247

>  <Target Name>  (6) 
ALK tyrosine kinase receptor

>  <Target Organism>  (6) 
Homo sapiens

>  <Target Type>  (6) 
SINGLE PROTEIN

>  <Document ChEMBL ID>  (6) 
CHEMBL1165965

>  <Source Description>  (6) 
Scientific Literature

>  <Document Journal>  (6) 
Bioorg Med Chem

>  <Document Year>  (6) 
2010.0

>  <Active>  (6) 
1.0

>  <bits>  (6) 
<rdkit.DataStructs.cDataStructs.ExplicitBitVect object at 0x000002422C1B67A0>

>  <Group>  (6) 
G2

$$$$

     RDKit          2D

 35 39  0  0  0  0  0  0  0  0999 V2000
   -3.7500  -11.6913    0.0000 C   0  0  0  0  0  0  0  0  0  0  0  0
   -3.0000  -10.3923    0.0000 N   0  0  0  0  0  0  0  0  0  0  0  0
   -3.7500   -9.0933    0.0000 C   0  0  0  0  0  0  0  0  0  0  0  0
   -3.0000   -7.7942    0.0000 C   0  0  0  0  0  0  0  0  0  0  0  0
   -1.5000   -7.7942    0.0000 N   0  0  0  0  0  0  0  0  0  0  0  0
   -0.7500   -6.4952    0.0000 C   0  0  0  0  0  0  0  0  0  0  0  0
    0.7500   -6.4952    0.0000 C   0  0  0  0  0  0  0  0  0  0  0  0
    1.5000   -5.1962    0.0000 C   0  0  0  0  0  0  0  0  0  0  0  0
    0.7500   -3.8971    0.0000 C   0  0  0  0  0  0  0  0  0  0  0  0
    1.5000   -2.5981    0.0000 N   0  0  0  0  0  0  0  0  0  0  0  0
    0.7500   -1.2990    0.0000 C   0  0  0  0  0  0  0  0  0  0  0  0
    1.5000    0.0000    0.0000 N   0  0  0  0  0  0  0  0  0  0  0  0
    0.7500    1.2990    0.0000 C   0  0  0  0  0  0  0  0  0  0  0  0
   -0.7500    1.2990    0.0000 C   0  0  0  0  0  0  0  0  0  0  0  0
   -1.7537    2.4138    0.0000 C   0  0  0  0  0  0  0  0  0  0  0  0
   -3.1240    1.8037    0.0000 C   0  0  0  0  0  0  0  0  0  0  0  0
   -2.9672    0.3119    0.0000 C   0  0  0  0  0  0  0  0  0  0  0  0
   -4.0819   -0.6918    0.0000 C   0  0  0  0  0  0  0  0  0  0  0  0
   -3.7701   -2.1590    0.0000 C   0  0  0  0  0  0  0  0  0  0  0  0
   -4.8848   -3.1627    0.0000 C   0  0  0  0  0  0  0  0  0  0  0  0
   -6.3114   -2.6992    0.0000 C   0  0  0  0  0  0  0  0  0  0  0  0
   -6.6232   -1.2320    0.0000 C   0  0  0  0  0  0  0  0  0  0  0  0
   -5.5085   -0.2283    0.0000 C   0  0  0  0  0  0  0  0  0  0  0  0
   -5.8204    1.2389    0.0000 N   0  0  0  0  0  0  0  0  0  0  0  0
   -7.2470    1.7024    0.0000 C   0  0  0  0  0  0  0  0  0  0  0  0
   -4.7057    2.2426    0.0000 S   0  0  0  0  0  0  0  0  0  0  0  0
   -3.5910    3.2463    0.0000 C   0  0  0  0  0  0  0  0  0  0  0  0
   -3.7020    1.1279    0.0000 O   0  0  0  0  0  0  0  0  0  0  0  0
   -5.7094    3.3573    0.0000 O   0  0  0  0  0  0  0  0  0  0  0  0
   -1.5000    0.0000    0.0000 N   0  0  0  0  0  0  0  0  0  0  0  0
   -0.7500   -1.2990    0.0000 N   0  0  0  0  0  0  0  0  0  0  0  0
   -0.7500   -3.8971    0.0000 C   0  0  0  0  0  0  0  0  0  0  0  0
   -1.5000   -5.1962    0.0000 C   0  0  0  0  0  0  0  0  0  0  0  0
   -0.7500   -9.0933    0.0000 C   0  0  0  0  0  0  0  0  0  0  0  0
   -1.5000  -10.3923    0.0000 C   0  0  0  0  0  0  0  0  0  0  0  0
  1  2  1  0
  2  3  1  0
  3  4  1  0
  4  5  1  0
  5  6  1  0
  6  7  2  0
  7  8  1  0
  8  9  2  0
  9 10  1  0
 10 11  1  0
 11 12  1  0
 12 13  2  0
 13 14  1  0
 14 15  2  0
 15 16  1  0
 16 17  2  0
 17 18  1  0
 18 19  2  0
 19 20  1  0
 20 21  2  0
 21 22  1  0
 22 23  2  0
 23 24  1  0
 24 25  1  0
 24 26  1  0
 26 27  1  0
 26 28  2  0
 26 29  2  0
 17 30  1  0
 30 31  1  0
  9 32  1  0
 32 33  2  0
  5 34  1  0
 34 35  1  0
 35  2  1  0
 33  6  1  0
 31 11  2  0
 30 14  1  0
 23 18  1  0
M  END
>  <Compound_ID>  (7) 
CHEMBL1821735

>  <Molecule Name>  (7) 
nan

>  <Molecular Weight>  (7) 
491.62

>  <AlogP>  (7) 
3.29

>  <Smiles>  (7) 
CN1CCN(c2ccc(Nc3ncc4ccc(-c5ccccc5N(C)S(C)(=O)=O)n4n3)cc2)CC1

>  <Standard Type>  (7) 
IC50

>  <Standard Relation>  (7) 
'='

>  <Standard Units>  (7) 
nM

>  <Standard Value>  (7) 
7.0

>  <Assay ChEMBL ID>  (7) 
CHEMBL1825977

>  <Assay Description>  (7) 
Inhibition of human recombinant ALK assessed as phosphorylated product using PLC-gamma/GST substrate by modified ELISA method

>  <BAO Format ID>  (7) 
BAO_0000357

>  <BAO Label>  (7) 
single protein format

>  <Assay Organism>  (7) 
Homo sapiens

>  <Target ChEMBL ID>  (7) 
CHEMBL4247

>  <Target Name>  (7) 
ALK tyrosine kinase receptor

>  <Target Organism>  (7) 
Homo sapiens

>  <Target Type>  (7) 
SINGLE PROTEIN

>  <Document ChEMBL ID>  (7) 
CHEMBL1821719

>  <Source Description>  (7) 
Scientific Literature

>  <Document Journal>  (7) 
J Med Chem

>  <Document Year>  (7) 
2011.0

>  <Active>  (7) 
1.0

>  <bits>  (7) 
<rdkit.DataStructs.cDataStructs.ExplicitBitVect object at 0x000002422C1B4DD0>

>  <Group>  (7) 
G2

$$$$

     RDKit          2D

 37 41  0  0  0  0  0  0  0  0999 V2000
   -4.5577    0.2855    0.0000 C   0  0  0  0  0  0  0  0  0  0  0  0
   -3.4430   -0.7182    0.0000 O   0  0  0  0  0  0  0  0  0  0  0  0
   -3.7548   -2.1855    0.0000 C   0  0  0  0  0  0  0  0  0  0  0  0
   -5.1814   -2.6490    0.0000 C   0  0  0  0  0  0  0  0  0  0  0  0
   -5.4933   -4.1162    0.0000 C   0  0  0  0  0  0  0  0  0  0  0  0
   -4.3786   -5.1199    0.0000 C   0  0  0  0  0  0  0  0  0  0  0  0
   -2.9520   -4.6564    0.0000 C   0  0  0  0  0  0  0  0  0  0  0  0
   -2.6401   -3.1891    0.0000 C   0  0  0  0  0  0  0  0  0  0  0  0
   -1.2135   -2.7256    0.0000 C   0  0  0  0  0  0  0  0  0  0  0  0
   -0.0000   -3.6073    0.0000 C   0  0  0  0  0  0  0  0  0  0  0  0
    0.0000   -5.1073    0.0000 C   0  0  0  0  0  0  0  0  0  0  0  0
    1.2990   -5.8573    0.0000 N   0  0  0  0  0  0  0  0  0  0  0  0
   -1.2990   -5.8573    0.0000 O   0  0  0  0  0  0  0  0  0  0  0  0
    1.2135   -2.7256    0.0000 S   0  0  0  0  0  0  0  0  0  0  0  0
    0.7500   -1.2990    0.0000 C   0  0  0  0  0  0  0  0  0  0  0  0
    1.5000    0.0000    0.0000 C   0  0  0  0  0  0  0  0  0  0  0  0
    0.7500    1.2990    0.0000 N   0  0  0  0  0  0  0  0  0  0  0  0
   -0.7500    1.2990    0.0000 C   0  0  0  0  0  0  0  0  0  0  0  0
   -1.5000    2.5981    0.0000 N   0  0  0  0  0  0  0  0  0  0  0  0
   -0.7500    3.8971    0.0000 C   0  0  0  0  0  0  0  0  0  0  0  0
    0.7500    3.8971    0.0000 C   0  0  0  0  0  0  0  0  0  0  0  0
    1.5000    5.1962    0.0000 C   0  0  0  0  0  0  0  0  0  0  0  0
    0.7500    6.4952    0.0000 C   0  0  0  0  0  0  0  0  0  0  0  0
    1.5000    7.7942    0.0000 C   0  0  0  0  0  0  0  0  0  0  0  0
    0.8899    9.1645    0.0000 C   0  0  0  0  0  0  0  0  0  0  0  0
    2.0046   10.1682    0.0000 N   0  0  0  0  0  0  0  0  0  0  0  0
    3.3037    9.4182    0.0000 N   0  0  0  0  0  0  0  0  0  0  0  0
    4.6740   10.0283    0.0000 C   0  0  0  0  0  0  0  0  0  0  0  0
    2.9918    7.9510    0.0000 C   0  0  0  0  0  0  0  0  0  0  0  0
   -0.7500    6.4952    0.0000 C   0  0  0  0  0  0  0  0  0  0  0  0
   -1.5000    5.1962    0.0000 C   0  0  0  0  0  0  0  0  0  0  0  0
   -3.0000    5.1962    0.0000 O   0  0  0  0  0  0  0  0  0  0  0  0
   -3.7500    6.4952    0.0000 C   0  0  0  0  0  0  0  0  0  0  0  0
   -5.2500    6.4952    0.0000 C   0  0  0  0  0  0  0  0  0  0  0  0
   -3.0000    7.7942    0.0000 C   0  0  0  0  0  0  0  0  0  0  0  0
   -1.5000    0.0000    0.0000 N   0  0  0  0  0  0  0  0  0  0  0  0
   -0.7500   -1.2990    0.0000 C   0  0  0  0  0  0  0  0  0  0  0  0
  1  2  1  0
  2  3  1  0
  3  4  2  0
  4  5  1  0
  5  6  2  0
  6  7  1  0
  7  8  2  0
  8  9  1  0
  9 10  2  0
 10 11  1  0
 11 12  1  0
 11 13  2  0
 10 14  1  0
 14 15  1  0
 15 16  2  0
 16 17  1  0
 17 18  2  0
 18 19  1  0
 19 20  1  0
 20 21  2  0
 21 22  1  0
 22 23  2  0
 23 24  1  0
 24 25  1  0
 25 26  2  0
 26 27  1  0
 27 28  1  0
 27 29  1  0
 23 30  1  0
 30 31  2  0
 31 32  1  0
 32 33  1  0
 33 34  1  0
 33 35  1  0
 18 36  1  0
 36 37  2  0
  8  3  1  0
 37  9  1  0
 37 15  1  0
 31 20  1  0
 29 24  2  0
M  END
>  <Compound_ID>  (8) 
CHEMBL3669143

>  <Molecule Name>  (8) 
nan

>  <Molecular Weight>  (8) 
514.61

>  <AlogP>  (8) 
5.40

>  <Smiles>  (8) 
COc1ccccc1-c1c(C(N)=O)sc2cnc(Nc3ccc(-c4cnn(C)c4)cc3OC(C)C)nc12

>  <Standard Type>  (8) 
IC50

>  <Standard Relation>  (8) 
'='

>  <Standard Units>  (8) 
nM

>  <Standard Value>  (8) 
43.0

>  <Assay ChEMBL ID>  (8) 
CHEMBL3705810

>  <Assay Description>  (8) 
In Vitro Inhibition Assay: The reagents used have the following composition: Enzyme buffer (EB): 50 mM HEPES (pH: 7.0) (Sigma H7523), 100 mM NaCl (Sigma S7653), NaN.sub.3 at 0.01% (Sigma S8032), BSA at 0.005% (Sigma A2153), 0.05 mM sodium orthovanadate (Calbiochem 567540). Detection buffer (DB): 50 mM HEPES (pH: 7.0), BSA at 0.1%, 0.8 M KF (Fluka 60239), 20 mM EDTA (Sigma E5134).The peptide used is the one described in Biochemistry, 2005, 44, 8533-8542; A-21-K(biotin)NH.sub.2, obtained from NeoMPS (reference SP081233). All the HTRF reagents Mab PT66-K (61T66KLB) and streptavidin-XL665 (610SAXLB), and the SEB reagent, are purchased from Cisbio.The test is carried out in a 384-well plate (Greiner 784076). The serial dilutions are carried out in pure DMSO, and then an intermediate one-in-three dilution in water is carried out, with 1 microliter of each concentration being distributed, all these operations being performed using the Zephyr apparatus (Caliper Life Sciences).

>  <BAO Format ID>  (8) 
BAO_0000357

>  <BAO Label>  (8) 
single protein format

>  <Assay Organism>  (8) 
Homo sapiens

>  <Target ChEMBL ID>  (8) 
CHEMBL4247

>  <Target Name>  (8) 
ALK tyrosine kinase receptor

>  <Target Organism>  (8) 
Homo sapiens

>  <Target Type>  (8) 
SINGLE PROTEIN

>  <Document ChEMBL ID>  (8) 
CHEMBL3639289

>  <Source Description>  (8) 
BindingDB Database

>  <Document Journal>  (8) 
nan

>  <Document Year>  (8) 
2015.0

>  <Active>  (8) 
1.0

>  <bits>  (8) 
<rdkit.DataStructs.cDataStructs.ExplicitBitVect object at 0x000002422C1B5FC0>

>  <Group>  (8) 
G2

$$$$

     RDKit          2D

 37 42  0  0  0  0  0  0  0  0999 V2000
   -6.8516   -6.6578    0.0000 C   0  0  0  0  0  0  0  0  0  0  0  0
   -5.6381   -7.5395    0.0000 C   0  0  0  0  0  0  0  0  0  0  0  0
   -4.2677   -6.9294    0.0000 C   0  0  0  0  0  0  0  0  0  0  0  0
   -4.1110   -5.4376    0.0000 C   0  0  0  0  0  0  0  0  0  0  0  0
   -2.7406   -4.8275    0.0000 C   0  0  0  0  0  0  0  0  0  0  0  0
   -1.5271   -5.7092    0.0000 C   0  0  0  0  0  0  0  0  0  0  0  0
   -1.6839   -7.2010    0.0000 C   0  0  0  0  0  0  0  0  0  0  0  0
   -3.0542   -7.8111    0.0000 C   0  0  0  0  0  0  0  0  0  0  0  0
   -3.2110   -9.3029    0.0000 C   0  0  0  0  0  0  0  0  0  0  0  0
   -4.5813   -9.9130    0.0000 C   0  0  0  0  0  0  0  0  0  0  0  0
   -4.7381  -11.4047    0.0000 C   0  0  0  0  0  0  0  0  0  0  0  0
   -3.5246  -12.2864    0.0000 N   0  0  0  0  0  0  0  0  0  0  0  0
   -3.6814  -13.7782    0.0000 C   0  0  0  0  0  0  0  0  0  0  0  0
   -5.0517  -14.3883    0.0000 C   0  0  0  0  0  0  0  0  0  0  0  0
   -6.2652  -13.5066    0.0000 C   0  0  0  0  0  0  0  0  0  0  0  0
   -7.6356  -14.1167    0.0000 C   0  0  0  0  0  0  0  0  0  0  0  0
   -7.7923  -15.6085    0.0000 O   0  0  0  0  0  0  0  0  0  0  0  0
   -6.5788  -16.4902    0.0000 C   0  0  0  0  0  0  0  0  0  0  0  0
   -5.2085  -15.8801    0.0000 C   0  0  0  0  0  0  0  0  0  0  0  0
   -2.1543  -11.6763    0.0000 C   0  0  0  0  0  0  0  0  0  0  0  0
   -1.9975  -10.1845    0.0000 C   0  0  0  0  0  0  0  0  0  0  0  0
   -0.1568   -5.0991    0.0000 C   0  0  0  0  0  0  0  0  0  0  0  0
    1.3396   -4.9944    0.0000 C   0  0  0  0  0  0  0  0  0  0  0  0
    0.2061   -6.5545    0.0000 C   0  0  0  0  0  0  0  0  0  0  0  0
   -0.0000   -3.6073    0.0000 C   0  0  0  0  0  0  0  0  0  0  0  0
    1.2135   -2.7256    0.0000 N   0  0  0  0  0  0  0  0  0  0  0  0
    0.7500   -1.2990    0.0000 C   0  0  0  0  0  0  0  0  0  0  0  0
    1.5000    0.0000    0.0000 C   0  0  0  0  0  0  0  0  0  0  0  0
    0.7500    1.2990    0.0000 C   0  0  0  0  0  0  0  0  0  0  0  0
    1.5000    2.5981    0.0000 C   0  0  0  0  0  0  0  0  0  0  0  0
    2.2500    3.8971    0.0000 N   0  0  0  0  0  0  0  0  0  0  0  0
   -0.7500    1.2990    0.0000 C   0  0  0  0  0  0  0  0  0  0  0  0
   -1.5000    0.0000    0.0000 C   0  0  0  0  0  0  0  0  0  0  0  0
   -0.7500   -1.2990    0.0000 C   0  0  0  0  0  0  0  0  0  0  0  0
   -1.2135   -2.7256    0.0000 C   0  0  0  0  0  0  0  0  0  0  0  0
   -2.5838   -3.3357    0.0000 C   0  0  0  0  0  0  0  0  0  0  0  0
   -3.7974   -2.4540    0.0000 O   0  0  0  0  0  0  0  0  0  0  0  0
  1  2  1  0
  2  3  1  0
  3  4  2  0
  4  5  1  0
  5  6  2  0
  6  7  1  0
  7  8  2  0
  8  9  1  0
  9 10  2  0
 10 11  1  0
 11 12  1  0
 12 13  1  0
 13 14  1  0
 14 15  1  0
 15 16  1  0
 16 17  1  0
 17 18  1  0
 18 19  1  0
 12 20  1  0
 20 21  1  0
  6 22  1  0
 22 23  1  0
 22 24  1  0
 22 25  1  0
 25 26  1  0
 26 27  1  0
 27 28  2  0
 28 29  1  0
 29 30  1  0
 30 31  3  0
 29 32  2  0
 32 33  1  0
 33 34  2  0
 34 35  1  0
 35 36  1  0
 36 37  2  0
  8  3  1  0
 21  9  1  0
 35 25  2  0
 36  5  1  0
 19 14  1  0
 34 27  1  0
M  END
>  <Compound_ID>  (9) 
CHEMBL3735386

>  <Molecule Name>  (9) 
nan

>  <Molecular Weight>  (9) 
493.65

>  <AlogP>  (9) 
5.99

>  <Smiles>  (9) 
CCc1cc2c(cc1C1=CCN(CC3CCOCC3)CC1)C(C)(C)c1[nH]c3cc(C#N)ccc3c1C2=O

>  <Standard Type>  (9) 
IC50

>  <Standard Relation>  (9) 
'='

>  <Standard Units>  (9) 
nM

>  <Standard Value>  (9) 
2.3

>  <Assay ChEMBL ID>  (9) 
CHEMBL3738493

>  <Assay Description>  (9) 
Inhibition of recombinant ALK (unknown origin) using poly (Glu, Tyr)4:1 substrate incubated for 60 mins by ELISA

>  <BAO Format ID>  (9) 
BAO_0000357

>  <BAO Label>  (9) 
single protein format

>  <Assay Organism>  (9) 
Homo sapiens

>  <Target ChEMBL ID>  (9) 
CHEMBL4247

>  <Target Name>  (9) 
ALK tyrosine kinase receptor

>  <Target Organism>  (9) 
Homo sapiens

>  <Target Type>  (9) 
SINGLE PROTEIN

>  <Document ChEMBL ID>  (9) 
CHEMBL3734710

>  <Source Description>  (9) 
Scientific Literature

>  <Document Journal>  (9) 
Eur J Med Chem

>  <Document Year>  (9) 
2015.0

>  <Active>  (9) 
1.0

>  <bits>  (9) 
<rdkit.DataStructs.cDataStructs.ExplicitBitVect object at 0x000002422C1B7680>

>  <Group>  (9) 
G2

$$$$

     RDKit          2D

 36 41  0  0  0  0  0  0  0  0999 V2000
   -6.8516   -6.6578    0.0000 C   0  0  0  0  0  0  0  0  0  0  0  0
   -5.6381   -7.5395    0.0000 C   0  0  0  0  0  0  0  0  0  0  0  0
   -4.2677   -6.9294    0.0000 C   0  0  0  0  0  0  0  0  0  0  0  0
   -4.1110   -5.4376    0.0000 C   0  0  0  0  0  0  0  0  0  0  0  0
   -2.7406   -4.8275    0.0000 C   0  0  0  0  0  0  0  0  0  0  0  0
   -1.5271   -5.7092    0.0000 C   0  0  0  0  0  0  0  0  0  0  0  0
   -1.6839   -7.2010    0.0000 C   0  0  0  0  0  0  0  0  0  0  0  0
   -3.0542   -7.8111    0.0000 C   0  0  0  0  0  0  0  0  0  0  0  0
   -3.2110   -9.3029    0.0000 N   0  0  0  0  0  0  0  0  0  0  0  0
   -1.9975  -10.1845    0.0000 C   0  0  0  0  0  0  0  0  0  0  0  0
   -0.6272   -9.5744    0.0000 O   0  0  0  0  0  0  0  0  0  0  0  0
   -2.1543  -11.6763    0.0000 C   0  0  0  0  0  0  0  0  0  0  0  0
   -0.9408  -12.5580    0.0000 N   0  0  0  0  0  0  0  0  0  0  0  0
    0.4858  -12.0945    0.0000 C   0  0  0  0  0  0  0  0  0  0  0  0
    1.3675  -13.3080    0.0000 C   0  0  0  0  0  0  0  0  0  0  0  0
    1.9776  -14.6783    0.0000 C   0  0  0  0  0  0  0  0  0  0  0  0
    3.1911  -15.5600    0.0000 C   0  0  0  0  0  0  0  0  0  0  0  0
    3.0343  -17.0518    0.0000 O   0  0  0  0  0  0  0  0  0  0  0  0
    0.4858  -14.5215    0.0000 C   0  0  0  0  0  0  0  0  0  0  0  0
   -0.9408  -14.0580    0.0000 C   0  0  0  0  0  0  0  0  0  0  0  0
   -0.1568   -5.0991    0.0000 C   0  0  0  0  0  0  0  0  0  0  0  0
    1.3396   -4.9944    0.0000 C   0  0  0  0  0  0  0  0  0  0  0  0
    0.2061   -6.5545    0.0000 C   0  0  0  0  0  0  0  0  0  0  0  0
   -0.0000   -3.6073    0.0000 C   0  0  0  0  0  0  0  0  0  0  0  0
    1.2135   -2.7256    0.0000 N   0  0  0  0  0  0  0  0  0  0  0  0
    0.7500   -1.2990    0.0000 C   0  0  0  0  0  0  0  0  0  0  0  0
    1.5000    0.0000    0.0000 C   0  0  0  0  0  0  0  0  0  0  0  0
    0.7500    1.2990    0.0000 C   0  0  0  0  0  0  0  0  0  0  0  0
    1.5000    2.5981    0.0000 C   0  0  0  0  0  0  0  0  0  0  0  0
    2.2500    3.8971    0.0000 N   0  0  0  0  0  0  0  0  0  0  0  0
   -0.7500    1.2990    0.0000 C   0  0  0  0  0  0  0  0  0  0  0  0
   -1.5000    0.0000    0.0000 C   0  0  0  0  0  0  0  0  0  0  0  0
   -0.7500   -1.2990    0.0000 C   0  0  0  0  0  0  0  0  0  0  0  0
   -1.2135   -2.7256    0.0000 C   0  0  0  0  0  0  0  0  0  0  0  0
   -2.5838   -3.3357    0.0000 C   0  0  0  0  0  0  0  0  0  0  0  0
   -3.7974   -2.4540    0.0000 O   0  0  0  0  0  0  0  0  0  0  0  0
  1  2  1  0
  2  3  1  0
  3  4  2  0
  4  5  1  0
  5  6  2  0
  6  7  1  0
  7  8  2  0
  8  9  1  0
  9 10  1  0
 10 11  2  0
 10 12  1  0
 12 13  1  0
 13 14  1  0
 15 14  1  6
 15 16  1  0
 16 17  1  0
 17 18  1  0
 16 19  1  0
 19 20  1  6
  6 21  1  0
 21 22  1  0
 21 23  1  0
 21 24  1  0
 24 25  1  0
 25 26  1  0
 26 27  2  0
 27 28  1  0
 28 29  1  0
 29 30  3  0
 28 31  2  0
 31 32  1  0
 32 33  2  0
 33 34  1  0
 34 35  1  0
 35 36  2  0
  8  3  1  0
 20 13  1  0
 34 24  2  0
 35  5  1  0
 19 15  1  0
 33 26  1  0
M  END
>  <Compound_ID>  (10) 
CHEMBL3735241

>  <Molecule Name>  (10) 
nan

>  <Molecular Weight>  (10) 
482.58

>  <AlogP>  (10) 
3.58

>  <Smiles>  (10) 
CCc1cc2c(cc1NC(=O)CN1C[C@@H]3C(CO)[C@@H]3C1)C(C)(C)c1[nH]c3cc(C#N)ccc3c1C2=O

>  <Standard Type>  (10) 
IC50

>  <Standard Relation>  (10) 
'='

>  <Standard Units>  (10) 
nM

>  <Standard Value>  (10) 
23.0

>  <Assay ChEMBL ID>  (10) 
CHEMBL3738493

>  <Assay Description>  (10) 
Inhibition of recombinant ALK (unknown origin) using poly (Glu, Tyr)4:1 substrate incubated for 60 mins by ELISA

>  <BAO Format ID>  (10) 
BAO_0000357

>  <BAO Label>  (10) 
single protein format

>  <Assay Organism>  (10) 
Homo sapiens

>  <Target ChEMBL ID>  (10) 
CHEMBL4247

>  <Target Name>  (10) 
ALK tyrosine kinase receptor

>  <Target Organism>  (10) 
Homo sapiens

>  <Target Type>  (10) 
SINGLE PROTEIN

>  <Document ChEMBL ID>  (10) 
CHEMBL3734710

>  <Source Description>  (10) 
Scientific Literature

>  <Document Journal>  (10) 
Eur J Med Chem

>  <Document Year>  (10) 
2015.0

>  <Active>  (10) 
1.0

>  <bits>  (10) 
<rdkit.DataStructs.cDataStructs.ExplicitBitVect object at 0x000002422C1B7E60>

>  <Group>  (10) 
G2

$$$$

     RDKit          2D

 50 54  0  0  0  0  0  0  0  0999 V2000
    3.7500   -1.2990    0.0000 C   0  0  0  0  0  0  0  0  0  0  0  0
    3.0000    0.0000    0.0000 C   0  0  0  0  0  0  0  0  0  0  0  0
    3.7500    1.2990    0.0000 O   0  0  0  0  0  0  0  0  0  0  0  0
    1.5000    0.0000    0.0000 N   0  0  0  0  0  0  0  0  0  0  0  0
    0.7500   -1.2990    0.0000 C   0  0  0  0  0  0  0  0  0  0  0  0
   -0.7500   -1.2990    0.0000 C   0  0  0  0  0  0  0  0  0  0  0  0
   -1.5000    0.0000    0.0000 N   0  0  0  0  0  0  0  0  0  0  0  0
   -3.0000    0.0000    0.0000 C   0  0  0  0  0  0  0  0  0  0  0  0
   -3.7500    1.2990    0.0000 C   0  0  0  0  0  0  0  0  0  0  0  0
   -5.2500    1.2990    0.0000 C   0  0  0  0  0  0  0  0  0  0  0  0
   -6.0000    0.0000    0.0000 C   0  0  0  0  0  0  0  0  0  0  0  0
   -7.5000    0.0000    0.0000 N   0  0  0  0  0  0  0  0  0  0  0  0
   -8.2500    1.2990    0.0000 C   0  0  0  0  0  0  0  0  0  0  0  0
   -7.5000    2.5981    0.0000 N   0  0  0  0  0  0  0  0  0  0  0  0
   -8.2500    3.8971    0.0000 C   0  0  0  0  0  0  0  0  0  0  0  0
   -9.7500    3.8971    0.0000 C   0  0  0  0  0  0  0  0  0  0  0  0
  -10.5000    5.1962    0.0000 C   0  0  0  0  0  0  0  0  0  0  0  0
  -11.2500    6.4952    0.0000 F   0  0  0  0  0  0  0  0  0  0  0  0
   -9.2010    5.9462    0.0000 F   0  0  0  0  0  0  0  0  0  0  0  0
  -11.7990    4.4462    0.0000 F   0  0  0  0  0  0  0  0  0  0  0  0
  -10.5000    2.5981    0.0000 C   0  0  0  0  0  0  0  0  0  0  0  0
  -12.0000    2.5981    0.0000 N   0  0  0  0  0  0  0  0  0  0  0  0
  -12.7500    1.2990    0.0000 C   0  0  0  0  0  0  0  0  0  0  0  0
  -14.2500    1.2990    0.0000 C   0  0  0  0  0  0  0  0  0  0  0  0
  -15.0000   -0.0000    0.0000 C   0  0  0  0  0  0  0  0  0  0  0  0
  -14.2500   -1.2990    0.0000 C   0  0  0  0  0  0  0  0  0  0  0  0
  -15.0000   -2.5981    0.0000 N   0  0  0  0  0  0  0  0  0  0  0  0
  -16.5000   -2.5981    0.0000 C   0  0  0  0  0  0  0  0  0  0  0  0
  -17.2500   -3.8971    0.0000 C   0  0  0  0  0  0  0  0  0  0  0  0
  -16.5000   -5.1962    0.0000 N   0  0  0  0  0  0  0  0  0  0  0  0
  -17.2500   -6.4952    0.0000 C   0  0  0  0  0  0  0  0  0  0  0  0
  -18.7500   -6.4952    0.0000 C   0  0  0  0  0  0  0  0  0  0  0  0
  -16.5000   -7.7942    0.0000 O   0  0  0  0  0  0  0  0  0  0  0  0
  -15.0000   -5.1962    0.0000 C   0  0  0  0  0  0  0  0  0  0  0  0
  -14.2500   -3.8971    0.0000 C   0  0  0  0  0  0  0  0  0  0  0  0
  -12.7500   -1.2990    0.0000 C   0  0  0  0  0  0  0  0  0  0  0  0
  -12.0000   -0.0000    0.0000 C   0  0  0  0  0  0  0  0  0  0  0  0
  -10.5000   -0.0000    0.0000 O   0  0  0  0  0  0  0  0  0  0  0  0
   -9.7500   -1.2990    0.0000 C   0  0  0  0  0  0  0  0  0  0  0  0
   -8.2500   -1.2990    0.0000 F   0  0  0  0  0  0  0  0  0  0  0  0
  -10.5000   -2.5981    0.0000 F   0  0  0  0  0  0  0  0  0  0  0  0
   -9.7500    1.2990    0.0000 N   0  0  0  0  0  0  0  0  0  0  0  0
   -5.2500   -1.2990    0.0000 C   0  0  0  0  0  0  0  0  0  0  0  0
   -6.0000   -2.5981    0.0000 O   0  0  0  0  0  0  0  0  0  0  0  0
   -5.2500   -3.8971    0.0000 C   0  0  0  0  0  0  0  0  0  0  0  0
   -6.0000   -5.1962    0.0000 F   0  0  0  0  0  0  0  0  0  0  0  0
   -3.7500   -3.8971    0.0000 F   0  0  0  0  0  0  0  0  0  0  0  0
   -3.7500   -1.2990    0.0000 C   0  0  0  0  0  0  0  0  0  0  0  0
   -0.7500    1.2990    0.0000 C   0  0  0  0  0  0  0  0  0  0  0  0
    0.7500    1.2990    0.0000 C   0  0  0  0  0  0  0  0  0  0  0  0
  1  2  1  0
  2  3  2  0
  2  4  1  0
  4  5  1  0
  5  6  1  0
  6  7  1  0
  7  8  1  0
  8  9  2  0
  9 10  1  0
 10 11  2  0
 11 12  1  0
 12 13  1  0
 13 14  2  0
 14 15  1  0
 15 16  2  0
 16 17  1  0
 17 18  1  0
 17 19  1  0
 17 20  1  0
 16 21  1  0
 21 22  1  0
 22 23  1  0
 23 24  2  0
 24 25  1  0
 25 26  2  0
 26 27  1  0
 27 28  1  0
 28 29  1  0
 29 30  1  0
 30 31  1  0
 31 32  1  0
 31 33  2  0
 30 34  1  0
 34 35  1  0
 26 36  1  0
 36 37  2  0
 37 38  1  0
 38 39  1  0
 39 40  1  0
 39 41  1  0
 21 42  2  0
 11 43  1  0
 43 44  1  0
 44 45  1  0
 45 46  1  0
 45 47  1  0
 43 48  2  0
  7 49  1  0
 49 50  1  0
 50  4  1  0
 48  8  1  0
 42 13  1  0
 37 23  1  0
 35 27  1  0
M  END
>  <Compound_ID>  (11) 
CHEMBL3911373

>  <Molecule Name>  (11) 
nan

>  <Molecular Weight>  (11) 
714.64

>  <AlogP>  (11) 
5.52

>  <Smiles>  (11) 
CC(=O)N1CCN(c2ccc(Nc3ncc(C(F)(F)F)c(Nc4ccc(N5CCN(C(C)=O)CC5)cc4OC(F)F)n3)c(OC(F)F)c2)CC1

>  <Standard Type>  (11) 
IC50

>  <Standard Relation>  (11) 
'='

>  <Standard Units>  (11) 
nM

>  <Standard Value>  (11) 
16.0

>  <Assay ChEMBL ID>  (11) 
CHEMBL3887132

>  <Assay Description>  (11) 
Homogeneous Time-resolved fluorescence (HTRF) Assay: In order to measure the inhibitory activity against ALK, a Grainer 96-well round type bottom plate was added with the compounds (2 μl) prepared in Examples 1 to 89, and mixed with ALK enzyme (1 ul) and a peptide substrate (2 μl) with biotin attached thereto for 15 minutes and cultured thereafter. Here, ATP solution (5 μl) was added thereto and kinase reaction was performed at room temperature for 30 minutes. XL 665 (5 μl), to which Streptavidin dissolved in ethylenediaminetetraacetic acid solution was attached, anti-phosphotyrosine antibody (5 μl), to which europium (Eu3+) was attached, were added to a reaction solution to stop the reaction, cultured for 1 hour, and analyzed using Homogeneous Time-resolved fluorescence (HTRF, Cisbio). The result was read by a Wallac Envision 2103 device at the wavelength range of 615/665 nm.

>  <BAO Format ID>  (11) 
BAO_0000357

>  <BAO Label>  (11) 
single protein format

>  <Assay Organism>  (11) 
Homo sapiens

>  <Target ChEMBL ID>  (11) 
CHEMBL4247

>  <Target Name>  (11) 
ALK tyrosine kinase receptor

>  <Target Organism>  (11) 
Homo sapiens

>  <Target Type>  (11) 
SINGLE PROTEIN

>  <Document ChEMBL ID>  (11) 
CHEMBL3886178

>  <Source Description>  (11) 
BindingDB Database

>  <Document Journal>  (11) 
nan

>  <Document Year>  (11) 
2015.0

>  <Active>  (11) 
1.0

>  <bits>  (11) 
<rdkit.DataStructs.cDataStructs.ExplicitBitVect object at 0x000002422C1B77D0>

>  <Group>  (11) 
G2

$$$$

     RDKit          2D

 35 42  0  0  0  0  0  0  0  0999 V2000
    7.0384   -5.9220    0.0000 C   0  0  0  0  0  0  0  0  0  0  0  0
    6.3474   -4.5907    0.0000 N   0  0  0  0  0  0  0  0  0  0  0  0
    4.8489   -4.5234    0.0000 C   0  0  0  0  0  0  0  0  0  0  0  0
    4.0414   -5.7874    0.0000 C   0  0  0  0  0  0  0  0  0  0  0  0
    2.5382   -5.8249    0.0000 C   0  0  0  0  0  0  0  0  0  0  0  0
    3.2490   -4.5040    0.0000 O   0  0  0  0  0  0  0  0  0  0  0  0
    2.6595   -3.1247    0.0000 C   0  0  0  0  0  0  0  0  0  0  0  0
    3.6464   -1.9951    0.0000 C   0  0  0  0  0  0  0  0  0  0  0  0
    4.1580   -3.1920    0.0000 C   0  0  0  0  0  0  0  0  0  0  0  0
    4.9655   -1.9279    0.0000 O   0  0  0  0  0  0  0  0  0  0  0  0
    6.4640   -1.9952    0.0000 C   0  0  0  0  0  0  0  0  0  0  0  0
    1.2135   -2.7256    0.0000 N   0  0  0  0  0  0  0  0  0  0  0  0
    0.7500   -1.2990    0.0000 C   0  0  0  0  0  0  0  0  0  0  0  0
    1.5000    0.0000    0.0000 C   0  0  0  0  0  0  0  0  0  0  0  0
    0.7500    1.2990    0.0000 C   0  0  0  0  0  0  0  0  0  0  0  0
   -0.7500    1.2990    0.0000 C   0  0  0  0  0  0  0  0  0  0  0  0
   -1.5000    0.0000    0.0000 C   0  0  0  0  0  0  0  0  0  0  0  0
   -0.7500   -1.2990    0.0000 C   0  0  0  0  0  0  0  0  0  0  0  0
   -1.2135   -2.7256    0.0000 C   0  0  0  0  0  0  0  0  0  0  0  0
   -2.5518   -3.5691    0.0000 C   0  0  0  0  0  0  0  0  0  0  0  0
   -2.6191   -5.0676    0.0000 C   0  0  0  0  0  0  0  0  0  0  0  0
   -1.3550   -5.8751    0.0000 C   0  0  0  0  0  0  0  0  0  0  0  0
   -1.0212   -7.3375    0.0000 C   0  0  0  0  0  0  0  0  0  0  0  0
   -1.8846   -8.5641    0.0000 C   0  0  0  0  0  0  0  0  0  0  0  0
   -1.2541   -9.9251    0.0000 C   0  0  0  0  0  0  0  0  0  0  0  0
    0.2399  -10.0596    0.0000 C   0  0  0  0  0  0  0  0  0  0  0  0
    1.1033   -8.8330    0.0000 C   0  0  0  0  0  0  0  0  0  0  0  0
    0.4728   -7.4720    0.0000 C   0  0  0  0  0  0  0  0  0  0  0  0
    1.0623   -6.0927    0.0000 N   0  0  0  0  0  0  0  0  0  0  0  0
   -0.0673   -5.1058    0.0000 C   0  0  0  0  0  0  0  0  0  0  0  0
   -0.0000   -3.6073    0.0000 C   0  0  0  0  0  0  0  0  0  0  0  0
   -4.0650   -5.4667    0.0000 C   0  0  0  0  0  0  0  0  0  0  0  0
   -4.5921   -6.8710    0.0000 O   0  0  0  0  0  0  0  0  0  0  0  0
   -4.8913   -4.2148    0.0000 N   0  0  0  0  0  0  0  0  0  0  0  0
   -3.9561   -3.0421    0.0000 C   0  0  0  0  0  0  0  0  0  0  0  0
  1  2  1  0
  3  2  1  6
  3  4  1  0
  5  4  1  6
  5  6  1  0
  6  7  1  0
  7  8  1  1
  7  9  1  0
  9 10  1  6
 10 11  1  0
  7 12  1  0
 12 13  1  0
 13 14  2  0
 14 15  1  0
 15 16  2  0
 16 17  1  0
 17 18  2  0
 18 19  1  0
 19 20  2  0
 20 21  1  0
 21 22  2  0
 22 23  1  0
 23 24  2  0
 24 25  1  0
 25 26  2  0
 26 27  1  0
 27 28  2  0
 28 29  1  0
 29 30  1  0
 30 31  2  0
 21 32  1  0
 32 33  2  0
 32 34  1  0
 34 35  1  0
  9  3  1  0
 31 12  1  0
 29  5  1  0
 18 13  1  0
 31 19  1  0
 35 20  1  0
 30 22  1  0
 28 23  1  0
M  END
>  <Compound_ID>  (12) 
CHEMBL388978

>  <Molecule Name>  (12) 
STAUROSPORINE

>  <Molecular Weight>  (12) 
466.54

>  <AlogP>  (12) 
4.35

>  <Smiles>  (12) 
CN[C@@H]1C[C@H]2O[C@@](C)([C@@H]1OC)n1c3ccccc3c3c4c(c5c6ccccc6n2c5c31)C(=O)NC4

>  <Standard Type>  (12) 
IC50

>  <Standard Relation>  (12) 
'='

>  <Standard Units>  (12) 
nM

>  <Standard Value>  (12) 
6.7

>  <Assay ChEMBL ID>  (12) 
CHEMBL3820469

>  <Assay Description>  (12) 
Inhibition of ALK (unknown origin) incubated for 1 hr by spectrophotometric analysis

>  <BAO Format ID>  (12) 
BAO_0000357

>  <BAO Label>  (12) 
single protein format

>  <Assay Organism>  (12) 
Homo sapiens

>  <Target ChEMBL ID>  (12) 
CHEMBL4247

>  <Target Name>  (12) 
ALK tyrosine kinase receptor

>  <Target Organism>  (12) 
Homo sapiens

>  <Target Type>  (12) 
SINGLE PROTEIN

>  <Document ChEMBL ID>  (12) 
CHEMBL3817824

>  <Source Description>  (12) 
Scientific Literature

>  <Document Journal>  (12) 
Bioorg Med Chem

>  <Document Year>  (12) 
2016.0

>  <Active>  (12) 
1.0

>  <bits>  (12) 
<rdkit.DataStructs.cDataStructs.ExplicitBitVect object at 0x000002422C1B5E70>

>  <Group>  (12) 
G2

$$$$

     RDKit          2D

 33 38  0  0  0  0  0  0  0  0999 V2000
    3.7500   -1.2990    0.0000 C   0  0  0  0  0  0  0  0  0  0  0  0
    3.0000   -2.5981    0.0000 C   0  0  0  0  0  0  0  0  0  0  0  0
    3.7500   -3.8971    0.0000 C   0  0  0  0  0  0  0  0  0  0  0  0
    3.0000   -5.1962    0.0000 N   0  0  0  0  0  0  0  0  0  0  0  0
    3.7500   -6.4952    0.0000 C   0  0  0  0  0  0  0  0  0  0  0  0
    3.3618   -7.9441    0.0000 C   0  0  0  0  0  0  0  0  0  0  0  0
    4.8107   -8.3323    0.0000 C   0  0  0  0  0  0  0  0  0  0  0  0
    5.1989   -6.8834    0.0000 C   0  0  0  0  0  0  0  0  0  0  0  0
    1.5000   -5.1962    0.0000 C   0  0  0  0  0  0  0  0  0  0  0  0
    0.7500   -3.8971    0.0000 C   0  0  0  0  0  0  0  0  0  0  0  0
    1.5000   -2.5981    0.0000 N   0  0  0  0  0  0  0  0  0  0  0  0
    0.7500   -1.2990    0.0000 C   0  0  0  0  0  0  0  0  0  0  0  0
    1.5000    0.0000    0.0000 C   0  0  0  0  0  0  0  0  0  0  0  0
    0.7500    1.2990    0.0000 C   0  0  0  0  0  0  0  0  0  0  0  0
   -0.7500    1.2990    0.0000 C   0  0  0  0  0  0  0  0  0  0  0  0
   -1.5000    0.0000    0.0000 C   0  0  0  0  0  0  0  0  0  0  0  0
   -0.7500   -1.2990    0.0000 C   0  0  0  0  0  0  0  0  0  0  0  0
   -3.0000    0.0000    0.0000 C   0  0  0  0  0  0  0  0  0  0  0  0
   -4.4095   -0.5130    0.0000 C   0  0  0  0  0  0  0  0  0  0  0  0
   -2.7395   -1.4772    0.0000 C   0  0  0  0  0  0  0  0  0  0  0  0
   -3.7500    1.2990    0.0000 C   0  0  0  0  0  0  0  0  0  0  0  0
   -5.2172    1.6109    0.0000 N   0  0  0  0  0  0  0  0  0  0  0  0
   -5.3740    3.1027    0.0000 C   0  0  0  0  0  0  0  0  0  0  0  0
   -6.5875    3.9844    0.0000 C   0  0  0  0  0  0  0  0  0  0  0  0
   -6.4307    5.4761    0.0000 C   0  0  0  0  0  0  0  0  0  0  0  0
   -7.6443    6.3578    0.0000 C   0  0  0  0  0  0  0  0  0  0  0  0
   -8.8578    7.2395    0.0000 N   0  0  0  0  0  0  0  0  0  0  0  0
   -5.0604    6.0863    0.0000 C   0  0  0  0  0  0  0  0  0  0  0  0
   -3.8469    5.2046    0.0000 C   0  0  0  0  0  0  0  0  0  0  0  0
   -4.0037    3.7128    0.0000 C   0  0  0  0  0  0  0  0  0  0  0  0
   -3.0000    2.5981    0.0000 C   0  0  0  0  0  0  0  0  0  0  0  0
   -1.5000    2.5981    0.0000 C   0  0  0  0  0  0  0  0  0  0  0  0
   -0.7500    3.8971    0.0000 O   0  0  0  0  0  0  0  0  0  0  0  0
  2  1  1  1
  2  3  1  0
  3  4  1  0
  4  5  1  0
  5  6  1  0
  6  7  1  0
  7  8  1  0
  4  9  1  0
  9 10  1  0
 10 11  1  0
 11 12  1  0
 12 13  2  0
 13 14  1  0
 14 15  2  0
 15 16  1  0
 16 17  2  0
 16 18  1  0
 18 19  1  0
 18 20  1  0
 18 21  1  0
 21 22  1  0
 22 23  1  0
 23 24  2  0
 24 25  1  0
 25 26  1  0
 26 27  3  0
 25 28  2  0
 28 29  1  0
 29 30  2  0
 30 31  1  0
 31 32  1  0
 32 33  2  0
 11  2  1  0
 17 12  1  0
 31 21  2  0
  8  5  1  0
 32 15  1  0
 30 23  1  0
M  END
>  <Compound_ID>  (13) 
CHEMBL3981666

>  <Molecule Name>  (13) 
nan

>  <Molecular Weight>  (13) 
438.58

>  <AlogP>  (13) 
4.97

>  <Smiles>  (13) 
C[C@H]1CN(C2CCC2)CCN1c1ccc2c(c1)C(C)(C)c1[nH]c3cc(C#N)ccc3c1C2=O

>  <Standard Type>  (13) 
IC50

>  <Standard Relation>  (13) 
'='

>  <Standard Units>  (13) 
nM

>  <Standard Value>  (13) 
0.981

>  <Assay ChEMBL ID>  (13) 
CHEMBL3887074

>  <Assay Description>  (13) 
Inhibition Assay: ALK-inhibiting activity was measured by following an activity of inhibiting phosphorylation by biotinylated peptide (EGPWLEEEEEAYGWMDF). For the detection of phosphorylation of the biotinylated peptide, time-resolved fluorescence measurement was performed using an anti-phosphorylated tyrosine antibody labeled with europium cryptate and streptavidin conjugated to XL665, i.e., an allophycocyanin derivative.

>  <BAO Format ID>  (13) 
BAO_0000357

>  <BAO Label>  (13) 
single protein format

>  <Assay Organism>  (13) 
Homo sapiens

>  <Target ChEMBL ID>  (13) 
CHEMBL4247

>  <Target Name>  (13) 
ALK tyrosine kinase receptor

>  <Target Organism>  (13) 
Homo sapiens

>  <Target Type>  (13) 
SINGLE PROTEIN

>  <Document ChEMBL ID>  (13) 
CHEMBL3886150

>  <Source Description>  (13) 
BindingDB Database

>  <Document Journal>  (13) 
nan

>  <Document Year>  (13) 
2015.0

>  <Active>  (13) 
1.0

>  <bits>  (13) 
<rdkit.DataStructs.cDataStructs.ExplicitBitVect object at 0x000002422C1B51C0>

>  <Group>  (13) 
G2

$$$$

     RDKit          2D

 30 33  0  0  0  0  0  0  0  0999 V2000
    2.6491   -3.5623    0.0000 C   0  0  0  0  0  0  0  0  0  0  0  0
    1.5000   -2.5981    0.0000 C   0  0  0  0  0  0  0  0  0  0  0  0
    2.6491   -1.6339    0.0000 C   0  0  0  0  0  0  0  0  0  0  0  0
    0.7500   -1.2990    0.0000 C   0  0  0  0  0  0  0  0  0  0  0  0
    1.5000    0.0000    0.0000 C   0  0  0  0  0  0  0  0  0  0  0  0
    0.7500    1.2990    0.0000 C   0  0  0  0  0  0  0  0  0  0  0  0
    1.5000    2.5981    0.0000 S   0  0  0  0  0  0  0  0  0  0  0  0
    0.2010    3.3481    0.0000 O   0  0  0  0  0  0  0  0  0  0  0  0
    2.7990    1.8481    0.0000 O   0  0  0  0  0  0  0  0  0  0  0  0
    2.2500    3.8971    0.0000 C   0  0  0  0  0  0  0  0  0  0  0  0
    1.5000    5.1962    0.0000 C   0  0  0  0  0  0  0  0  0  0  0  0
    2.2500    6.4952    0.0000 C   0  0  0  0  0  0  0  0  0  0  0  0
    3.7500    6.4952    0.0000 O   0  0  0  0  0  0  0  0  0  0  0  0
    1.5000    7.7942    0.0000 O   0  0  0  0  0  0  0  0  0  0  0  0
   -0.7500    1.2990    0.0000 C   0  0  0  0  0  0  0  0  0  0  0  0
   -1.5000    0.0000    0.0000 C   0  0  0  0  0  0  0  0  0  0  0  0
   -0.7500   -1.2990    0.0000 C   0  0  0  0  0  0  0  0  0  0  0  0
   -1.5000   -2.5981    0.0000 C   0  0  0  0  0  0  0  0  0  0  0  0
   -3.0000   -2.5981    0.0000 O   0  0  0  0  0  0  0  0  0  0  0  0
   -0.7500   -3.8971    0.0000 C   0  0  0  0  0  0  0  0  0  0  0  0
    0.7500   -3.8971    0.0000 C   0  0  0  0  0  0  0  0  0  0  0  0
    1.2135   -5.3237    0.0000 N   0  0  0  0  0  0  0  0  0  0  0  0
    0.0000   -6.2054    0.0000 C   0  0  0  0  0  0  0  0  0  0  0  0
   -0.1568   -7.6972    0.0000 C   0  0  0  0  0  0  0  0  0  0  0  0
   -1.5271   -8.3073    0.0000 C   0  0  0  0  0  0  0  0  0  0  0  0
   -1.6839   -9.7990    0.0000 C   0  0  0  0  0  0  0  0  0  0  0  0
   -1.8407  -11.2908    0.0000 N   0  0  0  0  0  0  0  0  0  0  0  0
   -2.7406   -7.4256    0.0000 C   0  0  0  0  0  0  0  0  0  0  0  0
   -2.5838   -5.9338    0.0000 C   0  0  0  0  0  0  0  0  0  0  0  0
   -1.2135   -5.3237    0.0000 C   0  0  0  0  0  0  0  0  0  0  0  0
  1  2  1  0
  2  3  1  0
  2  4  1  0
  4  5  2  0
  5  6  1  0
  6  7  1  0
  7  8  2  0
  7  9  2  0
  7 10  1  0
 10 11  1  0
 11 12  1  0
 12 13  2  0
 12 14  1  0
  6 15  2  0
 15 16  1  0
 16 17  2  0
 17 18  1  0
 18 19  2  0
 18 20  1  0
 20 21  2  0
 21 22  1  0
 22 23  1  0
 23 24  2  0
 24 25  1  0
 25 26  1  0
 26 27  3  0
 25 28  2  0
 28 29  1  0
 29 30  2  0
 21  2  1  0
 30 23  1  0
 17  4  1  0
 30 20  1  0
M  END
>  <Compound_ID>  (14) 
CHEMBL3918298

>  <Molecule Name>  (14) 
nan

>  <Molecular Weight>  (14) 
422.46

>  <AlogP>  (14) 
3.16

>  <Smiles>  (14) 
CC1(C)c2cc(S(=O)(=O)CCC(=O)O)ccc2C(=O)c2c1[nH]c1cc(C#N)ccc21

>  <Standard Type>  (14) 
IC50

>  <Standard Relation>  (14) 
'='

>  <Standard Units>  (14) 
nM

>  <Standard Value>  (14) 
71.08

>  <Assay ChEMBL ID>  (14) 
CHEMBL3887074

>  <Assay Description>  (14) 
Inhibition Assay: ALK-inhibiting activity was measured by following an activity of inhibiting phosphorylation by biotinylated peptide (EGPWLEEEEEAYGWMDF). For the detection of phosphorylation of the biotinylated peptide, time-resolved fluorescence measurement was performed using an anti-phosphorylated tyrosine antibody labeled with europium cryptate and streptavidin conjugated to XL665, i.e., an allophycocyanin derivative.

>  <BAO Format ID>  (14) 
BAO_0000357

>  <BAO Label>  (14) 
single protein format

>  <Assay Organism>  (14) 
Homo sapiens

>  <Target ChEMBL ID>  (14) 
CHEMBL4247

>  <Target Name>  (14) 
ALK tyrosine kinase receptor

>  <Target Organism>  (14) 
Homo sapiens

>  <Target Type>  (14) 
SINGLE PROTEIN

>  <Document ChEMBL ID>  (14) 
CHEMBL3886150

>  <Source Description>  (14) 
BindingDB Database

>  <Document Journal>  (14) 
nan

>  <Document Year>  (14) 
2015.0

>  <Active>  (14) 
1.0

>  <bits>  (14) 
<rdkit.DataStructs.cDataStructs.ExplicitBitVect object at 0x000002422C1B55B0>

>  <Group>  (14) 
G2

$$$$

     RDKit          2D

 40 44  0  0  0  0  0  0  0  0999 V2000
    4.7581   -7.3178    0.0000 C   0  0  0  0  0  0  0  0  0  0  0  0
    4.2945   -5.8912    0.0000 C   0  0  0  0  0  0  0  0  0  0  0  0
    5.2982   -4.7765    0.0000 C   0  0  0  0  0  0  0  0  0  0  0  0
    2.8273   -5.5793    0.0000 S   0  0  0  0  0  0  0  0  0  0  0  0
    3.1392   -4.1121    0.0000 O   0  0  0  0  0  0  0  0  0  0  0  0
    2.5155   -7.0465    0.0000 O   0  0  0  0  0  0  0  0  0  0  0  0
    1.3601   -5.2674    0.0000 C   0  0  0  0  0  0  0  0  0  0  0  0
    0.2454   -6.2711    0.0000 N   0  0  0  0  0  0  0  0  0  0  0  0
   -1.0537   -5.5211    0.0000 N   0  0  0  0  0  0  0  0  0  0  0  0
   -2.4240   -6.1312    0.0000 C   0  0  0  0  0  0  0  0  0  0  0  0
   -0.7418   -4.0539    0.0000 C   0  0  0  0  0  0  0  0  0  0  0  0
    0.7500   -3.8971    0.0000 C   0  0  0  0  0  0  0  0  0  0  0  0
    1.5000   -2.5981    0.0000 N   0  0  0  0  0  0  0  0  0  0  0  0
    0.7500   -1.2990    0.0000 C   0  0  0  0  0  0  0  0  0  0  0  0
    1.5000    0.0000    0.0000 N   0  0  0  0  0  0  0  0  0  0  0  0
    0.7500    1.2990    0.0000 C   0  0  0  0  0  0  0  0  0  0  0  0
    1.5000    2.5981    0.0000 N   0  0  0  0  0  0  0  0  0  0  0  0
    3.0000    2.5981    0.0000 C   0  0  0  0  0  0  0  0  0  0  0  0
    3.7500    1.2990    0.0000 C   0  0  0  0  0  0  0  0  0  0  0  0
    5.2500    1.2990    0.0000 C   0  0  0  0  0  0  0  0  0  0  0  0
    6.0000   -0.0000    0.0000 C   0  0  0  0  0  0  0  0  0  0  0  0
    6.7500   -1.2990    0.0000 N   0  0  0  0  0  0  0  0  0  0  0  0
    6.0000    2.5981    0.0000 C   0  0  0  0  0  0  0  0  0  0  0  0
    7.5000    2.5981    0.0000 C   0  0  0  0  0  0  0  0  0  0  0  0
    8.2500    1.2990    0.0000 C   0  0  0  0  0  0  0  0  0  0  0  0
    9.7500    1.2990    0.0000 C   0  0  0  0  0  0  0  0  0  0  0  0
   10.5000    2.5981    0.0000 N   0  0  0  0  0  0  0  0  0  0  0  0
   12.0000    2.5981    0.0000 C   0  0  0  0  0  0  0  0  0  0  0  0
    9.7500    3.8971    0.0000 C   0  0  0  0  0  0  0  0  0  0  0  0
    8.2500    3.8971    0.0000 C   0  0  0  0  0  0  0  0  0  0  0  0
    5.2500    3.8971    0.0000 C   0  0  0  0  0  0  0  0  0  0  0  0
    3.7500    3.8971    0.0000 C   0  0  0  0  0  0  0  0  0  0  0  0
    3.0000    5.1962    0.0000 O   0  0  0  0  0  0  0  0  0  0  0  0
    3.7500    6.4952    0.0000 C   0  0  0  0  0  0  0  0  0  0  0  0
    3.7500    7.9952    0.0000 C   0  0  0  0  0  0  0  0  0  0  0  0
    5.0490    7.2452    0.0000 C   0  0  0  0  0  0  0  0  0  0  0  0
   -0.7500    1.2990    0.0000 N   0  0  0  0  0  0  0  0  0  0  0  0
   -1.5000    0.0000    0.0000 C   0  0  0  0  0  0  0  0  0  0  0  0
   -0.7500   -1.2990    0.0000 C   0  0  0  0  0  0  0  0  0  0  0  0
   -1.5000   -2.5981    0.0000 Cl  0  0  0  0  0  0  0  0  0  0  0  0
  1  2  1  0
  2  3  1  0
  2  4  1  0
  4  5  2  0
  4  6  2  0
  4  7  1  0
  7  8  2  0
  8  9  1  0
  9 10  1  0
  9 11  1  0
 11 12  2  0
 12 13  1  0
 13 14  1  0
 14 15  2  0
 15 16  1  0
 16 17  1  0
 17 18  1  0
 18 19  2  0
 19 20  1  0
 20 21  1  0
 21 22  3  0
 20 23  2  0
 23 24  1  0
 24 25  1  0
 25 26  1  0
 26 27  1  0
 27 28  1  0
 27 29  1  0
 29 30  1  0
 23 31  1  0
 31 32  2  0
 32 33  1  0
 33 34  1  0
 34 35  1  0
 35 36  1  0
 16 37  2  0
 37 38  1  0
 38 39  2  0
 39 40  1  0
 12  7  1  0
 39 14  1  0
 32 18  1  0
 36 34  1  0
 30 24  1  0
M  END
>  <Compound_ID>  (15) 
CHEMBL3604644

>  <Molecule Name>  (15) 
nan

>  <Molecular Weight>  (15) 
585.13

>  <AlogP>  (15) 
4.75

>  <Smiles>  (15) 
CC(C)S(=O)(=O)c1nn(C)cc1Nc1nc(Nc2cc(C#N)c(C3CCN(C)CC3)cc2OC2CC2)ncc1Cl

>  <Standard Type>  (15) 
IC50

>  <Standard Relation>  (15) 
'='

>  <Standard Units>  (15) 
nM

>  <Standard Value>  (15) 
13.0

>  <Assay ChEMBL ID>  (15) 
CHEMBL3607641

>  <Assay Description>  (15) 
Inhibition of ALK L1196M mutant (unknown origin) using TK substrate-biotin incubated for 30 mins by HTRF assay

>  <BAO Format ID>  (15) 
BAO_0000357

>  <BAO Label>  (15) 
single protein format

>  <Assay Organism>  (15) 
Homo sapiens

>  <Target ChEMBL ID>  (15) 
CHEMBL4247

>  <Target Name>  (15) 
ALK tyrosine kinase receptor

>  <Target Organism>  (15) 
Homo sapiens

>  <Target Type>  (15) 
SINGLE PROTEIN

>  <Document ChEMBL ID>  (15) 
CHEMBL3603807

>  <Source Description>  (15) 
Scientific Literature

>  <Document Journal>  (15) 
Bioorg Med Chem Lett

>  <Document Year>  (15) 
2015.0

>  <Active>  (15) 
1.0

>  <bits>  (15) 
<rdkit.DataStructs.cDataStructs.ExplicitBitVect object at 0x000002422C1B7A70>

>  <Group>  (15) 
G2

$$$$

     RDKit          2D

 31 35  0  0  0  0  0  0  0  0999 V2000
  -12.3143   -4.9666    0.0000 C   0  0  0  0  0  0  0  0  0  0  0  0
  -11.1996   -5.9703    0.0000 C   0  0  0  0  0  0  0  0  0  0  0  0
  -11.5115   -7.4375    0.0000 C   0  0  0  0  0  0  0  0  0  0  0  0
   -9.7730   -5.5068    0.0000 N   0  0  0  0  0  0  0  0  0  0  0  0
   -9.4612   -4.0396    0.0000 C   0  0  0  0  0  0  0  0  0  0  0  0
   -8.0346   -3.5760    0.0000 C   0  0  0  0  0  0  0  0  0  0  0  0
   -6.9199   -4.5797    0.0000 N   0  0  0  0  0  0  0  0  0  0  0  0
   -5.4933   -4.1162    0.0000 C   0  0  0  0  0  0  0  0  0  0  0  0
   -4.3786   -5.1199    0.0000 C   0  0  0  0  0  0  0  0  0  0  0  0
   -2.9520   -4.6564    0.0000 C   0  0  0  0  0  0  0  0  0  0  0  0
   -2.6401   -3.1891    0.0000 C   0  0  0  0  0  0  0  0  0  0  0  0
   -1.2135   -2.7256    0.0000 C   0  0  0  0  0  0  0  0  0  0  0  0
   -0.0000   -3.6073    0.0000 N   0  0  0  0  0  0  0  0  0  0  0  0
    1.2135   -2.7256    0.0000 N   0  0  0  0  0  0  0  0  0  0  0  0
    0.7500   -1.2990    0.0000 C   0  0  0  0  0  0  0  0  0  0  0  0
    1.5000    0.0000    0.0000 N   0  0  0  0  0  0  0  0  0  0  0  0
    0.7500    1.2990    0.0000 C   0  0  0  0  0  0  0  0  0  0  0  0
    1.5000    2.5981    0.0000 C   0  0  0  0  0  0  0  0  0  0  0  0
    3.0000    2.5981    0.0000 C   0  0  0  0  0  0  0  0  0  0  0  0
    3.7500    3.8971    0.0000 C   0  0  0  0  0  0  0  0  0  0  0  0
    3.0000    5.1962    0.0000 C   0  0  0  0  0  0  0  0  0  0  0  0
    3.7500    6.4952    0.0000 O   0  0  0  0  0  0  0  0  0  0  0  0
    1.5000    5.1962    0.0000 C   0  0  0  0  0  0  0  0  0  0  0  0
    0.7500    3.8971    0.0000 C   0  0  0  0  0  0  0  0  0  0  0  0
   -0.7500    1.2990    0.0000 C   0  0  0  0  0  0  0  0  0  0  0  0
   -1.5000    0.0000    0.0000 C   0  0  0  0  0  0  0  0  0  0  0  0
   -0.7500   -1.2990    0.0000 C   0  0  0  0  0  0  0  0  0  0  0  0
   -3.7548   -2.1855    0.0000 C   0  0  0  0  0  0  0  0  0  0  0  0
   -5.1814   -2.6490    0.0000 C   0  0  0  0  0  0  0  0  0  0  0  0
   -7.2317   -6.0469    0.0000 C   0  0  0  0  0  0  0  0  0  0  0  0
   -8.6583   -6.5105    0.0000 C   0  0  0  0  0  0  0  0  0  0  0  0
  1  2  1  0
  2  3  1  0
  2  4  1  0
  4  5  1  0
  5  6  1  0
  6  7  1  0
  7  8  1  0
  8  9  2  0
  9 10  1  0
 10 11  2  0
 11 12  1  0
 12 13  2  0
 13 14  1  0
 14 15  1  0
 15 16  2  0
 16 17  1  0
 17 18  1  0
 18 19  2  0
 19 20  1  0
 20 21  2  0
 21 22  1  0
 21 23  1  0
 23 24  2  0
 17 25  2  0
 25 26  1  0
 26 27  2  0
 11 28  1  0
 28 29  2  0
  7 30  1  0
 30 31  1  0
 31  4  1  0
 29  8  1  0
 27 12  1  0
 27 15  1  0
 24 18  1  0
M  END
>  <Compound_ID>  (16) 
CHEMBL4461630

>  <Molecule Name>  (16) 
nan

>  <Molecular Weight>  (16) 
413.53

>  <AlogP>  (16) 
4.53

>  <Smiles>  (16) 
CC(C)N1CCN(c2ccc(-c3n[nH]c4nc(-c5ccc(O)cc5)ccc34)cc2)CC1

>  <Standard Type>  (16) 
IC50

>  <Standard Relation>  (16) 
'='

>  <Standard Units>  (16) 
nM

>  <Standard Value>  (16) 
47.4

>  <Assay ChEMBL ID>  (16) 
CHEMBL4370936

>  <Assay Description>  (16) 
Inhibition of recombinant ALK (unknown origin) using peptide substrate measured after 1 hr by LanthaScreen assay

>  <BAO Format ID>  (16) 
BAO_0000357

>  <BAO Label>  (16) 
single protein format

>  <Assay Organism>  (16) 
Homo sapiens

>  <Target ChEMBL ID>  (16) 
CHEMBL4247

>  <Target Name>  (16) 
ALK tyrosine kinase receptor

>  <Target Organism>  (16) 
Homo sapiens

>  <Target Type>  (16) 
SINGLE PROTEIN

>  <Document ChEMBL ID>  (16) 
CHEMBL4368941

>  <Source Description>  (16) 
Scientific Literature

>  <Document Journal>  (16) 
Bioorg Med Chem Lett

>  <Document Year>  (16) 
2019.0

>  <Active>  (16) 
1.0

>  <bits>  (16) 
<rdkit.DataStructs.cDataStructs.ExplicitBitVect object at 0x000002422C1B73E0>

>  <Group>  (16) 
G2

$$$$

     RDKit          2D

 29 33  0  0  0  0  0  0  0  0999 V2000
   -3.8536   -0.8075    0.0000 C   0  0  0  0  0  0  0  0  0  0  0  0
   -3.8536   -2.3075    0.0000 C   0  0  0  0  0  0  0  0  0  0  0  0
   -5.0672   -3.1891    0.0000 N   0  0  0  0  0  0  0  0  0  0  0  0
   -4.6036   -4.6157    0.0000 N   0  0  0  0  0  0  0  0  0  0  0  0
   -5.4853   -5.8293    0.0000 C   0  0  0  0  0  0  0  0  0  0  0  0
   -6.9771   -5.6725    0.0000 C   0  0  0  0  0  0  0  0  0  0  0  0
   -7.5872   -4.3021    0.0000 C   0  0  0  0  0  0  0  0  0  0  0  0
   -9.0790   -4.1454    0.0000 C   0  0  0  0  0  0  0  0  0  0  0  0
   -9.9607   -5.3589    0.0000 C   0  0  0  0  0  0  0  0  0  0  0  0
   -9.3506   -6.7292    0.0000 C   0  0  0  0  0  0  0  0  0  0  0  0
  -10.2322   -7.9427    0.0000 F   0  0  0  0  0  0  0  0  0  0  0  0
   -7.8588   -6.8860    0.0000 C   0  0  0  0  0  0  0  0  0  0  0  0
   -3.1036   -4.6157    0.0000 C   0  0  0  0  0  0  0  0  0  0  0  0
   -2.6401   -3.1891    0.0000 C   0  0  0  0  0  0  0  0  0  0  0  0
   -1.2135   -2.7256    0.0000 C   0  0  0  0  0  0  0  0  0  0  0  0
   -0.0000   -3.6073    0.0000 C   0  0  0  0  0  0  0  0  0  0  0  0
    1.2135   -2.7256    0.0000 N   0  0  0  0  0  0  0  0  0  0  0  0
    0.7500   -1.2990    0.0000 C   0  0  0  0  0  0  0  0  0  0  0  0
    1.5000    0.0000    0.0000 N   0  0  0  0  0  0  0  0  0  0  0  0
    0.7500    1.2990    0.0000 C   0  0  0  0  0  0  0  0  0  0  0  0
   -0.7500    1.2990    0.0000 C   0  0  0  0  0  0  0  0  0  0  0  0
   -1.5000    2.5981    0.0000 C   0  0  0  0  0  0  0  0  0  0  0  0
   -2.9918    2.7549    0.0000 C   0  0  0  0  0  0  0  0  0  0  0  0
   -3.3037    4.2221    0.0000 N   0  0  0  0  0  0  0  0  0  0  0  0
   -2.0046    4.9721    0.0000 N   0  0  0  0  0  0  0  0  0  0  0  0
   -1.8478    6.4639    0.0000 C   0  0  0  0  0  0  0  0  0  0  0  0
   -0.8899    3.9684    0.0000 C   0  0  0  0  0  0  0  0  0  0  0  0
   -1.5000    0.0000    0.0000 C   0  0  0  0  0  0  0  0  0  0  0  0
   -0.7500   -1.2990    0.0000 C   0  0  0  0  0  0  0  0  0  0  0  0
  1  2  1  0
  2  3  2  0
  3  4  1  0
  4  5  1  0
  5  6  1  0
  6  7  2  0
  7  8  1  0
  8  9  2  0
  9 10  1  0
 10 11  1  0
 10 12  2  0
  4 13  1  0
 13 14  2  0
 14 15  1  0
 15 16  2  0
 16 17  1  0
 17 18  1  0
 18 19  2  0
 19 20  1  0
 20 21  2  0
 21 22  1  0
 22 23  1  0
 23 24  2  0
 24 25  1  0
 25 26  1  0
 25 27  1  0
 21 28  1  0
 28 29  2  0
 14  2  1  0
 29 15  1  0
 12  6  1  0
 29 18  1  0
 27 22  2  0
M  END
>  <Compound_ID>  (17) 
CHEMBL2418746

>  <Molecule Name>  (17) 
nan

>  <Molecular Weight>  (17) 
386.43

>  <AlogP>  (17) 
4.32

>  <Smiles>  (17) 
Cc1nn(Cc2cccc(F)c2)cc1-c1c[nH]c2ncc(-c3cnn(C)c3)cc12

>  <Standard Type>  (17) 
IC50

>  <Standard Relation>  (17) 
'='

>  <Standard Units>  (17) 
nM

>  <Standard Value>  (17) 
6.0

>  <Assay ChEMBL ID>  (17) 
CHEMBL2423641

>  <Assay Description>  (17) 
Inhibition of wild type human recombinant ALK after 30 mins by TR-FRET assay

>  <BAO Format ID>  (17) 
BAO_0000357

>  <BAO Label>  (17) 
single protein format

>  <Assay Organism>  (17) 
Homo sapiens

>  <Target ChEMBL ID>  (17) 
CHEMBL4247

>  <Target Name>  (17) 
ALK tyrosine kinase receptor

>  <Target Organism>  (17) 
Homo sapiens

>  <Target Type>  (17) 
SINGLE PROTEIN

>  <Document ChEMBL ID>  (17) 
CHEMBL2417505

>  <Source Description>  (17) 
Scientific Literature

>  <Document Journal>  (17) 
Bioorg Med Chem Lett

>  <Document Year>  (17) 
2013.0

>  <Active>  (17) 
1.0

>  <bits>  (17) 
<rdkit.DataStructs.cDataStructs.ExplicitBitVect object at 0x000002422C1B5C40>

>  <Group>  (17) 
G2

$$$$

     RDKit          2D

 29 33  0  0  0  0  0  0  0  0999 V2000
    4.6740   -4.8322    0.0000 C   0  0  0  0  0  0  0  0  0  0  0  0
    3.3037   -4.2221    0.0000 N   0  0  0  0  0  0  0  0  0  0  0  0
    2.9918   -2.7549    0.0000 C   0  0  0  0  0  0  0  0  0  0  0  0
    1.5000   -2.5981    0.0000 C   0  0  0  0  0  0  0  0  0  0  0  0
    0.7500   -1.2990    0.0000 C   0  0  0  0  0  0  0  0  0  0  0  0
    1.5000    0.0000    0.0000 C   0  0  0  0  0  0  0  0  0  0  0  0
    0.7500    1.2990    0.0000 N   0  0  0  0  0  0  0  0  0  0  0  0
   -0.7500    1.2990    0.0000 C   0  0  0  0  0  0  0  0  0  0  0  0
   -1.7537    2.4138    0.0000 N   0  0  0  0  0  0  0  0  0  0  0  0
   -3.1240    1.8037    0.0000 C   0  0  0  0  0  0  0  0  0  0  0  0
   -2.9672    0.3119    0.0000 C   0  0  0  0  0  0  0  0  0  0  0  0
   -4.0819   -0.6918    0.0000 C   0  0  0  0  0  0  0  0  0  0  0  0
   -3.9251   -2.1836    0.0000 C   0  0  0  0  0  0  0  0  0  0  0  0
   -5.2955   -2.7937    0.0000 N   0  0  0  0  0  0  0  0  0  0  0  0
   -6.2992   -1.6790    0.0000 N   0  0  0  0  0  0  0  0  0  0  0  0
   -7.7909   -1.8358    0.0000 C   0  0  0  0  0  0  0  0  0  0  0  0
   -8.6726   -0.6223    0.0000 C   0  0  0  0  0  0  0  0  0  0  0  0
   -8.0625    0.7481    0.0000 C   0  0  0  0  0  0  0  0  0  0  0  0
   -8.9442    1.9616    0.0000 C   0  0  0  0  0  0  0  0  0  0  0  0
  -10.4360    1.8048    0.0000 C   0  0  0  0  0  0  0  0  0  0  0  0
  -11.3177    3.0183    0.0000 F   0  0  0  0  0  0  0  0  0  0  0  0
  -11.0461    0.4345    0.0000 C   0  0  0  0  0  0  0  0  0  0  0  0
  -12.5379    0.2777    0.0000 F   0  0  0  0  0  0  0  0  0  0  0  0
  -10.1644   -0.7791    0.0000 C   0  0  0  0  0  0  0  0  0  0  0  0
   -5.5492   -0.3800    0.0000 C   0  0  0  0  0  0  0  0  0  0  0  0
   -1.5000    0.0000    0.0000 C   0  0  0  0  0  0  0  0  0  0  0  0
   -0.7500   -1.2990    0.0000 C   0  0  0  0  0  0  0  0  0  0  0  0
    0.8899   -3.9684    0.0000 C   0  0  0  0  0  0  0  0  0  0  0  0
    2.0046   -4.9721    0.0000 N   0  0  0  0  0  0  0  0  0  0  0  0
  1  2  1  0
  2  3  1  0
  3  4  2  0
  4  5  1  0
  5  6  2  0
  6  7  1  0
  7  8  2  0
  8  9  1  0
  9 10  1  0
 10 11  2  0
 11 12  1  0
 12 13  1  0
 13 14  2  0
 14 15  1  0
 15 16  1  0
 16 17  1  0
 17 18  2  0
 18 19  1  0
 19 20  2  0
 20 21  1  0
 20 22  1  0
 22 23  1  0
 22 24  2  0
 15 25  1  0
 11 26  1  0
 26 27  2  0
  4 28  1  0
 28 29  2  0
 29  2  1  0
 27  5  1  0
 26  8  1  0
 25 12  2  0
 24 17  1  0
M  END
>  <Compound_ID>  (18) 
CHEMBL2418762

>  <Molecule Name>  (18) 
nan

>  <Molecular Weight>  (18) 
390.4

>  <AlogP>  (18) 
4.15

>  <Smiles>  (18) 
Cn1cc(-c2cnc3[nH]cc(-c4cnn(Cc5ccc(F)c(F)c5)c4)c3c2)cn1

>  <Standard Type>  (18) 
IC50

>  <Standard Relation>  (18) 
'='

>  <Standard Units>  (18) 
nM

>  <Standard Value>  (18) 
84.0

>  <Assay ChEMBL ID>  (18) 
CHEMBL2423641

>  <Assay Description>  (18) 
Inhibition of wild type human recombinant ALK after 30 mins by TR-FRET assay

>  <BAO Format ID>  (18) 
BAO_0000357

>  <BAO Label>  (18) 
single protein format

>  <Assay Organism>  (18) 
Homo sapiens

>  <Target ChEMBL ID>  (18) 
CHEMBL4247

>  <Target Name>  (18) 
ALK tyrosine kinase receptor

>  <Target Organism>  (18) 
Homo sapiens

>  <Target Type>  (18) 
SINGLE PROTEIN

>  <Document ChEMBL ID>  (18) 
CHEMBL2417505

>  <Source Description>  (18) 
Scientific Literature

>  <Document Journal>  (18) 
Bioorg Med Chem Lett

>  <Document Year>  (18) 
2013.0

>  <Active>  (18) 
1.0

>  <bits>  (18) 
<rdkit.DataStructs.cDataStructs.ExplicitBitVect object at 0x000002422C1B7760>

>  <Group>  (18) 
G2

$$$$

     RDKit          2D

 37 40  0  0  0  0  0  0  0  0999 V2000
    3.0000    0.0000    0.0000 C   0  0  0  0  0  0  0  0  0  0  0  0
    1.5000    0.0000    0.0000 C   0  0  0  0  0  0  0  0  0  0  0  0
    0.7500   -1.2990    0.0000 C   0  0  0  0  0  0  0  0  0  0  0  0
   -0.7500   -1.2990    0.0000 C   0  0  0  0  0  0  0  0  0  0  0  0
   -1.5000   -2.5981    0.0000 N   0  0  0  0  0  0  0  0  0  0  0  0
   -3.0000   -2.5981    0.0000 C   0  0  0  0  0  0  0  0  0  0  0  0
   -3.7500   -1.2990    0.0000 N   0  0  0  0  0  0  0  0  0  0  0  0
   -5.2500   -1.2990    0.0000 C   0  0  0  0  0  0  0  0  0  0  0  0
   -6.0000   -2.5981    0.0000 C   0  0  0  0  0  0  0  0  0  0  0  0
   -7.5000   -2.5981    0.0000 Cl  0  0  0  0  0  0  0  0  0  0  0  0
   -5.2500   -3.8971    0.0000 C   0  0  0  0  0  0  0  0  0  0  0  0
   -6.0000   -5.1962    0.0000 N   0  0  0  0  0  0  0  0  0  0  0  0
   -5.2500   -6.4952    0.0000 C   0  0  0  0  0  0  0  0  0  0  0  0
   -3.7582   -6.6520    0.0000 C   0  0  0  0  0  0  0  0  0  0  0  0
   -3.4463   -8.1192    0.0000 N   0  0  0  0  0  0  0  0  0  0  0  0
   -2.0760   -8.7293    0.0000 C   0  0  0  0  0  0  0  0  0  0  0  0
   -4.7454   -8.8692    0.0000 N   0  0  0  0  0  0  0  0  0  0  0  0
   -5.8601   -7.8655    0.0000 C   0  0  0  0  0  0  0  0  0  0  0  0
   -7.3273   -8.1774    0.0000 S   0  0  0  0  0  0  0  0  0  0  0  0
   -7.6392   -6.7102    0.0000 O   0  0  0  0  0  0  0  0  0  0  0  0
   -7.0155   -9.6446    0.0000 O   0  0  0  0  0  0  0  0  0  0  0  0
   -8.7945   -8.4892    0.0000 C   0  0  0  0  0  0  0  0  0  0  0  0
   -9.7982   -7.3745    0.0000 C   0  0  0  0  0  0  0  0  0  0  0  0
   -9.2581   -9.9158    0.0000 C   0  0  0  0  0  0  0  0  0  0  0  0
   -3.7500   -3.8971    0.0000 N   0  0  0  0  0  0  0  0  0  0  0  0
   -1.5000    0.0000    0.0000 C   0  0  0  0  0  0  0  0  0  0  0  0
   -3.0000    0.0000    0.0000 O   0  0  0  0  0  0  0  0  0  0  0  0
   -3.7500    1.2990    0.0000 C   0  0  0  0  0  0  0  0  0  0  0  0
   -5.0490    2.0490    0.0000 C   0  0  0  0  0  0  0  0  0  0  0  0
   -3.7500    2.7990    0.0000 C   0  0  0  0  0  0  0  0  0  0  0  0
   -0.7500    1.2990    0.0000 C   0  0  0  0  0  0  0  0  0  0  0  0
    0.7500    1.2990    0.0000 C   0  0  0  0  0  0  0  0  0  0  0  0
    1.5000    2.5981    0.0000 C   0  0  0  0  0  0  0  0  0  0  0  0
    3.0000    2.5981    0.0000 O   0  0  0  0  0  0  0  0  0  0  0  0
    0.7500    3.8971    0.0000 C   0  0  0  0  0  0  0  0  0  0  0  0
    1.5000    5.1962    0.0000 C   0  0  0  0  0  0  0  0  0  0  0  0
   -0.7500    3.8971    0.0000 C   0  0  0  0  0  0  0  0  0  0  0  0
  1  2  1  0
  2  3  2  0
  3  4  1  0
  4  5  1  0
  5  6  1  0
  6  7  2  0
  7  8  1  0
  8  9  2  0
  9 10  1  0
  9 11  1  0
 11 12  1  0
 12 13  1  0
 13 14  2  0
 14 15  1  0
 15 16  1  0
 15 17  1  0
 17 18  2  0
 18 19  1  0
 19 20  2  0
 19 21  2  0
 19 22  1  0
 22 23  1  0
 22 24  1  0
 11 25  2  0
  4 26  2  0
 26 27  1  0
 27 28  1  0
 28 29  1  0
 29 30  1  0
 26 31  1  0
 31 32  2  0
 32 33  1  0
 33 34  2  0
 33 35  1  0
 35 36  1  0
 35 37  1  0
 32  2  1  0
 25  6  1  0
 30 28  1  0
 18 13  1  0
M  END
>  <Compound_ID>  (19) 
CHEMBL3604653

>  <Molecule Name>  (19) 
nan

>  <Molecular Weight>  (19) 
547.08

>  <AlogP>  (19) 
5.22

>  <Smiles>  (19) 
Cc1cc(Nc2ncc(Cl)c(Nc3cn(C)nc3S(=O)(=O)C(C)C)n2)c(OC2CC2)cc1C(=O)C(C)C

>  <Standard Type>  (19) 
IC50

>  <Standard Relation>  (19) 
'='

>  <Standard Units>  (19) 
nM

>  <Standard Value>  (19) 
26.0

>  <Assay ChEMBL ID>  (19) 
CHEMBL3607640

>  <Assay Description>  (19) 
Inhibition of wild type human recombinant ALK using TK substrate-biotin incubated for 30 mins by HTRF assay

>  <BAO Format ID>  (19) 
BAO_0000357

>  <BAO Label>  (19) 
single protein format

>  <Assay Organism>  (19) 
Homo sapiens

>  <Target ChEMBL ID>  (19) 
CHEMBL4247

>  <Target Name>  (19) 
ALK tyrosine kinase receptor

>  <Target Organism>  (19) 
Homo sapiens

>  <Target Type>  (19) 
SINGLE PROTEIN

>  <Document ChEMBL ID>  (19) 
CHEMBL3603807

>  <Source Description>  (19) 
Scientific Literature

>  <Document Journal>  (19) 
Bioorg Med Chem Lett

>  <Document Year>  (19) 
2015.0

>  <Active>  (19) 
1.0

>  <bits>  (19) 
<rdkit.DataStructs.cDataStructs.ExplicitBitVect object at 0x000002422C1B7F40>

>  <Group>  (19) 
G2

$$$$

     RDKit          2D

 36 38  0  0  0  0  0  0  0  0999 V2000
    3.7500   -1.2990    0.0000 C   0  0  0  0  0  0  0  0  0  0  0  0
    3.0000    0.0000    0.0000 O   0  0  0  0  0  0  0  0  0  0  0  0
    1.5000    0.0000    0.0000 C   0  0  0  0  0  0  0  0  0  0  0  0
    0.7500   -1.2990    0.0000 C   0  0  0  0  0  0  0  0  0  0  0  0
   -0.7500   -1.2990    0.0000 C   0  0  0  0  0  0  0  0  0  0  0  0
   -1.5000   -2.5981    0.0000 C   0  0  0  0  0  0  0  0  0  0  0  0
   -2.7990   -1.8481    0.0000 C   0  0  0  0  0  0  0  0  0  0  0  0
   -0.2010   -3.3481    0.0000 C   0  0  0  0  0  0  0  0  0  0  0  0
   -2.2500   -3.8971    0.0000 N   0  0  0  0  0  0  0  0  0  0  0  0
   -3.7500   -3.8971    0.0000 C   0  0  0  0  0  0  0  0  0  0  0  0
   -4.5000   -5.1962    0.0000 O   0  0  0  0  0  0  0  0  0  0  0  0
   -1.5000    0.0000    0.0000 C   0  0  0  0  0  0  0  0  0  0  0  0
   -3.0000    0.0000    0.0000 C   0  0  0  0  0  0  0  0  0  0  0  0
   -0.7500    1.2990    0.0000 C   0  0  0  0  0  0  0  0  0  0  0  0
    0.7500    1.2990    0.0000 C   0  0  0  0  0  0  0  0  0  0  0  0
    1.5000    2.5981    0.0000 N   0  0  0  0  0  0  0  0  0  0  0  0
    3.0000    2.5981    0.0000 C   0  0  0  0  0  0  0  0  0  0  0  0
    3.7500    1.2990    0.0000 N   0  0  0  0  0  0  0  0  0  0  0  0
    5.2500    1.2990    0.0000 C   0  0  0  0  0  0  0  0  0  0  0  0
    6.0000    2.5981    0.0000 C   0  0  0  0  0  0  0  0  0  0  0  0
    7.5000    2.5981    0.0000 Cl  0  0  0  0  0  0  0  0  0  0  0  0
    5.2500    3.8971    0.0000 C   0  0  0  0  0  0  0  0  0  0  0  0
    6.0000    5.1962    0.0000 N   0  0  0  0  0  0  0  0  0  0  0  0
    5.2500    6.4952    0.0000 C   0  0  0  0  0  0  0  0  0  0  0  0
    3.7500    6.4952    0.0000 C   0  0  0  0  0  0  0  0  0  0  0  0
    3.0000    7.7942    0.0000 C   0  0  0  0  0  0  0  0  0  0  0  0
    3.7500    9.0933    0.0000 C   0  0  0  0  0  0  0  0  0  0  0  0
    5.2500    9.0933    0.0000 C   0  0  0  0  0  0  0  0  0  0  0  0
    6.0000    7.7942    0.0000 C   0  0  0  0  0  0  0  0  0  0  0  0
    7.5000    7.7942    0.0000 S   0  0  0  0  0  0  0  0  0  0  0  0
    7.5000    6.2942    0.0000 O   0  0  0  0  0  0  0  0  0  0  0  0
    7.5000    9.2942    0.0000 O   0  0  0  0  0  0  0  0  0  0  0  0
    9.0000    7.7942    0.0000 C   0  0  0  0  0  0  0  0  0  0  0  0
    9.7500    9.0933    0.0000 C   0  0  0  0  0  0  0  0  0  0  0  0
    9.7500    6.4952    0.0000 C   0  0  0  0  0  0  0  0  0  0  0  0
    3.7500    3.8971    0.0000 N   0  0  0  0  0  0  0  0  0  0  0  0
  1  2  1  0
  2  3  1  0
  3  4  2  0
  4  5  1  0
  5  6  1  0
  6  7  1  0
  6  8  1  0
  6  9  1  0
  9 10  1  0
 10 11  2  0
  5 12  2  0
 12 13  1  0
 12 14  1  0
 14 15  2  0
 15 16  1  0
 16 17  1  0
 17 18  2  0
 18 19  1  0
 19 20  2  0
 20 21  1  0
 20 22  1  0
 22 23  1  0
 23 24  1  0
 24 25  2  0
 25 26  1  0
 26 27  2  0
 27 28  1  0
 28 29  2  0
 29 30  1  0
 30 31  2  0
 30 32  2  0
 30 33  1  0
 33 34  1  0
 33 35  1  0
 22 36  2  0
 15  3  1  0
 36 17  1  0
 29 24  1  0
M  END
>  <Compound_ID>  (20) 
CHEMBL4096452

>  <Molecule Name>  (20) 
nan

>  <Molecular Weight>  (20) 
532.07

>  <AlogP>  (20) 
5.10

>  <Smiles>  (20) 
COc1cc(C(C)(C)NC=O)c(C)cc1Nc1ncc(Cl)c(Nc2ccccc2S(=O)(=O)C(C)C)n1

>  <Standard Type>  (20) 
IC50

>  <Standard Relation>  (20) 
'='

>  <Standard Units>  (20) 
nM

>  <Standard Value>  (20) 
2.1

>  <Assay ChEMBL ID>  (20) 
CHEMBL3993014

>  <Assay Description>  (20) 
Inhibition of wild-type ALK (unknown origin) using peptide as substrate measured after 30 mins by fluorescence assay

>  <BAO Format ID>  (20) 
BAO_0000357

>  <BAO Label>  (20) 
single protein format

>  <Assay Organism>  (20) 
Homo sapiens

>  <Target ChEMBL ID>  (20) 
CHEMBL4247

>  <Target Name>  (20) 
ALK tyrosine kinase receptor

>  <Target Organism>  (20) 
Homo sapiens

>  <Target Type>  (20) 
SINGLE PROTEIN

>  <Document ChEMBL ID>  (20) 
CHEMBL3992504

>  <Source Description>  (20) 
Scientific Literature

>  <Document Journal>  (20) 
Eur J Med Chem

>  <Document Year>  (20) 
2017.0

>  <Active>  (20) 
1.0

>  <bits>  (20) 
<rdkit.DataStructs.cDataStructs.ExplicitBitVect object at 0x000002422C1B5310>

>  <Group>  (20) 
G2

$$$$

     RDKit          2D

 62 67  0  0  0  0  0  0  0  0999 V2000
   -3.0000    0.0000    0.0000 C   0  0  0  0  0  0  0  0  0  0  0  0
   -1.5000   -0.0000    0.0000 C   0  0  0  0  0  0  0  0  0  0  0  0
   -0.7500   -1.2990    0.0000 N   0  0  0  0  0  0  0  0  0  0  0  0
    0.7500   -1.2990    0.0000 C   0  0  0  0  0  0  0  0  0  0  0  0
    1.5000    0.0000    0.0000 O   0  0  0  0  0  0  0  0  0  0  0  0
    1.5000   -2.5981    0.0000 C   0  0  0  0  0  0  0  0  0  0  0  0
    2.9918   -2.7549    0.0000 N   0  0  0  0  0  0  0  0  0  0  0  0
    3.3037   -4.2221    0.0000 O   0  0  0  0  0  0  0  0  0  0  0  0
    2.0046   -4.9721    0.0000 C   0  0  0  0  0  0  0  0  0  0  0  0
    1.8478   -6.4639    0.0000 C   0  0  0  0  0  0  0  0  0  0  0  0
    0.4775   -7.0740    0.0000 C   0  0  0  0  0  0  0  0  0  0  0  0
    0.3207   -8.5658    0.0000 C   0  0  0  0  0  0  0  0  0  0  0  0
   -1.0496   -9.1759    0.0000 C   0  0  0  0  0  0  0  0  0  0  0  0
   -2.2631   -8.2942    0.0000 C   0  0  0  0  0  0  0  0  0  0  0  0
   -1.2064  -10.6676    0.0000 C   0  0  0  0  0  0  0  0  0  0  0  0
    1.5342   -9.4474    0.0000 C   0  0  0  0  0  0  0  0  0  0  0  0
    1.3774  -10.9392    0.0000 O   0  0  0  0  0  0  0  0  0  0  0  0
    2.9046   -8.8373    0.0000 C   0  0  0  0  0  0  0  0  0  0  0  0
    3.0613   -7.3456    0.0000 C   0  0  0  0  0  0  0  0  0  0  0  0
    4.4317   -6.7354    0.0000 O   0  0  0  0  0  0  0  0  0  0  0  0
    0.8899   -3.9684    0.0000 C   0  0  0  0  0  0  0  0  0  0  0  0
   -0.5773   -4.2803    0.0000 C   0  0  0  0  0  0  0  0  0  0  0  0
   -1.5810   -3.1655    0.0000 C   0  0  0  0  0  0  0  0  0  0  0  0
   -3.0482   -3.4774    0.0000 C   0  0  0  0  0  0  0  0  0  0  0  0
   -3.5118   -4.9040    0.0000 C   0  0  0  0  0  0  0  0  0  0  0  0
   -4.9790   -5.2159    0.0000 C   0  0  0  0  0  0  0  0  0  0  0  0
   -5.9827   -4.1011    0.0000 N   0  0  0  0  0  0  0  0  0  0  0  0
   -7.4499   -4.4130    0.0000 C   0  0  0  0  0  0  0  0  0  0  0  0
   -8.4536   -3.2983    0.0000 C   0  0  0  0  0  0  0  0  0  0  0  0
   -7.9901   -1.8717    0.0000 O   0  0  0  0  0  0  0  0  0  0  0  0
   -9.9208   -3.6102    0.0000 N   0  0  0  0  0  0  0  0  0  0  0  0
  -10.9245   -2.4954    0.0000 C   0  0  0  0  0  0  0  0  0  0  0  0
  -10.4610   -1.0689    0.0000 C   0  0  0  0  0  0  0  0  0  0  0  0
  -11.4647    0.0459    0.0000 C   0  0  0  0  0  0  0  0  0  0  0  0
  -12.9319   -0.2660    0.0000 C   0  0  0  0  0  0  0  0  0  0  0  0
  -13.9356    0.8487    0.0000 O   0  0  0  0  0  0  0  0  0  0  0  0
  -13.4721    2.2753    0.0000 C   0  0  0  0  0  0  0  0  0  0  0  0
  -13.3954   -1.6926    0.0000 C   0  0  0  0  0  0  0  0  0  0  0  0
  -14.8627   -2.0045    0.0000 N   0  0  0  0  0  0  0  0  0  0  0  0
  -15.3262   -3.4311    0.0000 C   0  0  0  0  0  0  0  0  0  0  0  0
  -16.7934   -3.7429    0.0000 N   0  0  0  0  0  0  0  0  0  0  0  0
  -17.2569   -5.1695    0.0000 C   0  0  0  0  0  0  0  0  0  0  0  0
  -16.2532   -6.2842    0.0000 C   0  0  0  0  0  0  0  0  0  0  0  0
  -16.7168   -7.7108    0.0000 Cl  0  0  0  0  0  0  0  0  0  0  0  0
  -14.7860   -5.9724    0.0000 C   0  0  0  0  0  0  0  0  0  0  0  0
  -13.7823   -7.0871    0.0000 N   0  0  0  0  0  0  0  0  0  0  0  0
  -12.3151   -6.7752    0.0000 C   0  0  0  0  0  0  0  0  0  0  0  0
  -11.8516   -5.3486    0.0000 C   0  0  0  0  0  0  0  0  0  0  0  0
  -10.3844   -5.0367    0.0000 C   0  0  0  0  0  0  0  0  0  0  0  0
   -9.3807   -6.1515    0.0000 C   0  0  0  0  0  0  0  0  0  0  0  0
   -9.8442   -7.5781    0.0000 C   0  0  0  0  0  0  0  0  0  0  0  0
  -11.3114   -7.8899    0.0000 C   0  0  0  0  0  0  0  0  0  0  0  0
  -11.7749   -9.3165    0.0000 S   0  0  0  0  0  0  0  0  0  0  0  0
  -13.2015   -8.8530    0.0000 O   0  0  0  0  0  0  0  0  0  0  0  0
  -10.3483   -9.7800    0.0000 O   0  0  0  0  0  0  0  0  0  0  0  0
  -12.2385  -10.7431    0.0000 C   0  0  0  0  0  0  0  0  0  0  0  0
  -13.7057  -11.0550    0.0000 C   0  0  0  0  0  0  0  0  0  0  0  0
  -11.2348  -11.8578    0.0000 C   0  0  0  0  0  0  0  0  0  0  0  0
  -14.3225   -4.5458    0.0000 N   0  0  0  0  0  0  0  0  0  0  0  0
  -12.3917   -2.8073    0.0000 C   0  0  0  0  0  0  0  0  0  0  0  0
   -2.5081   -6.0187    0.0000 C   0  0  0  0  0  0  0  0  0  0  0  0
   -1.0409   -5.7068    0.0000 C   0  0  0  0  0  0  0  0  0  0  0  0
  1  2  1  0
  2  3  1  0
  3  4  1  0
  4  5  2  0
  4  6  1  0
  6  7  2  0
  7  8  1  0
  8  9  1  0
  9 10  1  0
 10 11  2  0
 11 12  1  0
 12 13  1  0
 13 14  1  0
 13 15  1  0
 12 16  2  0
 16 17  1  0
 16 18  1  0
 18 19  2  0
 19 20  1  0
  9 21  2  0
 21 22  1  0
 22 23  2  0
 23 24  1  0
 24 25  2  0
 25 26  1  0
 26 27  1  0
 27 28  1  0
 28 29  1  0
 29 30  2  0
 29 31  1  0
 31 32  1  0
 32 33  2  0
 33 34  1  0
 34 35  2  0
 35 36  1  0
 36 37  1  0
 35 38  1  0
 38 39  1  0
 39 40  1  0
 40 41  2  0
 41 42  1  0
 42 43  2  0
 43 44  1  0
 43 45  1  0
 45 46  1  0
 46 47  1  0
 47 48  2  0
 48 49  1  0
 49 50  2  0
 50 51  1  0
 51 52  2  0
 52 53  1  0
 53 54  2  0
 53 55  2  0
 53 56  1  0
 56 57  1  0
 56 58  1  0
 45 59  2  0
 38 60  2  0
 25 61  1  0
 61 62  2  0
 21  6  1  0
 62 22  1  0
 19 10  1  0
 60 32  1  0
 59 40  1  0
 52 47  1  0
M  END
>  <Compound_ID>  (21) 
CHEMBL4170411

>  <Molecule Name>  (21) 
nan

>  <Molecular Weight>  (21) 
883.43

>  <AlogP>  (21) 
8.14

>  <Smiles>  (21) 
CCNC(=O)c1noc(-c2cc(C(C)C)c(O)cc2O)c1-c1ccc(CNCC(=O)Nc2ccc(OC)c(Nc3ncc(Cl)c(Nc4ccccc4S(=O)(=O)C(C)C)n3)c2)cc1

>  <Standard Type>  (21) 
IC50

>  <Standard Relation>  (21) 
'='

>  <Standard Units>  (21) 
nM

>  <Standard Value>  (21) 
24.2

>  <Assay ChEMBL ID>  (21) 
CHEMBL4153979

>  <Assay Description>  (21) 
Inhibition of recombinant ALK (unknown origin) using poly (Glu,Tyr)4:1 as substrate after 60 mins by ELISA

>  <BAO Format ID>  (21) 
BAO_0000357

>  <BAO Label>  (21) 
single protein format

>  <Assay Organism>  (21) 
Homo sapiens

>  <Target ChEMBL ID>  (21) 
CHEMBL4247

>  <Target Name>  (21) 
ALK tyrosine kinase receptor

>  <Target Organism>  (21) 
Homo sapiens

>  <Target Type>  (21) 
SINGLE PROTEIN

>  <Document ChEMBL ID>  (21) 
CHEMBL4152232

>  <Source Description>  (21) 
Scientific Literature

>  <Document Journal>  (21) 
Eur J Med Chem

>  <Document Year>  (21) 
2018.0

>  <Active>  (21) 
1.0

>  <bits>  (21) 
<rdkit.DataStructs.cDataStructs.ExplicitBitVect object at 0x000002422C1B4510>

>  <Group>  (21) 
G2

$$$$

     RDKit          2D

 37 40  0  0  0  0  0  0  0  0999 V2000
    5.2500  -11.6913    0.0000 C   0  0  0  0  0  0  0  0  0  0  0  0
    3.7500  -11.6913    0.0000 N   0  0  0  0  0  0  0  0  0  0  0  0
    3.0000  -10.3923    0.0000 C   0  0  0  0  0  0  0  0  0  0  0  0
    3.7500   -9.0933    0.0000 O   0  0  0  0  0  0  0  0  0  0  0  0
    1.5000  -10.3923    0.0000 C   0  0  0  0  0  0  0  0  0  0  0  0
    0.7500  -11.6913    0.0000 C   0  0  0  0  0  0  0  0  0  0  0  0
   -0.7500  -11.6913    0.0000 C   0  0  0  0  0  0  0  0  0  0  0  0
   -1.5000  -10.3923    0.0000 C   0  0  0  0  0  0  0  0  0  0  0  0
   -0.7500   -9.0933    0.0000 C   0  0  0  0  0  0  0  0  0  0  0  0
    0.7500   -9.0933    0.0000 C   0  0  0  0  0  0  0  0  0  0  0  0
    1.5000   -7.7942    0.0000 N   0  0  0  0  0  0  0  0  0  0  0  0
    0.7500   -6.4952    0.0000 C   0  0  0  0  0  0  0  0  0  0  0  0
    1.5000   -5.1962    0.0000 N   0  0  0  0  0  0  0  0  0  0  0  0
    0.7500   -3.8971    0.0000 C   0  0  0  0  0  0  0  0  0  0  0  0
    1.5000   -2.5981    0.0000 N   0  0  0  0  0  0  0  0  0  0  0  0
    0.7500   -1.2990    0.0000 C   0  0  0  0  0  0  0  0  0  0  0  0
    1.5000    0.0000    0.0000 C   0  0  0  0  0  0  0  0  0  0  0  0
    0.7500    1.2990    0.0000 C   0  0  0  0  0  0  0  0  0  0  0  0
   -0.7500    1.2990    0.0000 C   0  0  0  0  0  0  0  0  0  0  0  0
   -1.5000    0.0000    0.0000 C   0  0  0  0  0  0  0  0  0  0  0  0
   -0.7500   -1.2990    0.0000 C   0  0  0  0  0  0  0  0  0  0  0  0
   -2.9832   -0.2236    0.0000 C   0  0  0  0  0  0  0  0  0  0  0  0
   -3.4254   -1.6569    0.0000 C   0  0  0  0  0  0  0  0  0  0  0  0
   -4.0828    0.7967    0.0000 C   0  0  0  0  0  0  0  0  0  0  0  0
   -3.9707    2.2925    0.0000 N   0  0  0  0  0  0  0  0  0  0  0  0
   -5.2698    3.0425    0.0000 C   0  0  0  0  0  0  0  0  0  0  0  0
   -5.2698    4.5425    0.0000 C   0  0  0  0  0  0  0  0  0  0  0  0
   -3.9707    5.2925    0.0000 O   0  0  0  0  0  0  0  0  0  0  0  0
   -6.5688    5.2925    0.0000 N   0  0  0  0  0  0  0  0  0  0  0  0
   -6.5688    6.7925    0.0000 C   0  0  0  0  0  0  0  0  0  0  0  0
   -7.8678    4.5425    0.0000 C   0  0  0  0  0  0  0  0  0  0  0  0
   -2.7314    3.1375    0.0000 C   0  0  0  0  0  0  0  0  0  0  0  0
   -1.2980    2.6953    0.0000 C   0  0  0  0  0  0  0  0  0  0  0  0
   -0.7500   -3.8971    0.0000 N   0  0  0  0  0  0  0  0  0  0  0  0
   -1.5000   -5.1962    0.0000 C   0  0  0  0  0  0  0  0  0  0  0  0
   -0.7500   -6.4952    0.0000 C   0  0  0  0  0  0  0  0  0  0  0  0
   -1.5000   -7.7942    0.0000 Cl  0  0  0  0  0  0  0  0  0  0  0  0
  1  2  1  0
  2  3  1  0
  3  4  2  0
  3  5  1  0
  5  6  2  0
  6  7  1  0
  7  8  2  0
  8  9  1  0
  9 10  2  0
 10 11  1  0
 11 12  1  0
 12 13  2  0
 13 14  1  0
 14 15  1  0
 15 16  1  0
 16 17  2  0
 17 18  1  0
 18 19  2  0
 19 20  1  0
 20 21  2  0
 20 22  1  0
 22 23  1  0
 22 24  1  0
 24 25  1  0
 25 26  1  0
 26 27  1  0
 27 28  2  0
 27 29  1  0
 29 30  1  0
 29 31  1  0
 25 32  1  0
 32 33  1  0
 14 34  2  0
 34 35  1  0
 35 36  2  0
 36 37  1  0
 10  5  1  0
 36 12  1  0
 21 16  1  0
 33 19  1  0
M  END
>  <Compound_ID>  (22) 
CHEMBL3263980

>  <Molecule Name>  (22) 
nan

>  <Molecular Weight>  (22) 
522.05

>  <AlogP>  (22) 
4.03

>  <Smiles>  (22) 
CNC(=O)c1ccccc1Nc1nc(Nc2ccc3c(c2)C(C)CN(CC(=O)N(C)C)CC3)ncc1Cl

>  <Standard Type>  (22) 
IC50

>  <Standard Relation>  (22) 
'='

>  <Standard Units>  (22) 
nM

>  <Standard Value>  (22) 
38.0

>  <Assay ChEMBL ID>  (22) 
CHEMBL3267806

>  <Assay Description>  (22) 
Inhibition of purified recombinant ALK (unknown origin) after 60 mins by ELISA

>  <BAO Format ID>  (22) 
BAO_0000357

>  <BAO Label>  (22) 
single protein format

>  <Assay Organism>  (22) 
Homo sapiens

>  <Target ChEMBL ID>  (22) 
CHEMBL4247

>  <Target Name>  (22) 
ALK tyrosine kinase receptor

>  <Target Organism>  (22) 
Homo sapiens

>  <Target Type>  (22) 
SINGLE PROTEIN

>  <Document ChEMBL ID>  (22) 
CHEMBL3259567

>  <Source Description>  (22) 
Scientific Literature

>  <Document Journal>  (22) 
ACS Med Chem Lett

>  <Document Year>  (22) 
2014.0

>  <Active>  (22) 
1.0

>  <bits>  (22) 
<rdkit.DataStructs.cDataStructs.ExplicitBitVect object at 0x000002422C1B5700>

>  <Group>  (22) 
G2

$$$$

     RDKit          2D

 34 37  0  0  0  0  0  0  0  0999 V2000
   -3.1476   -2.1380    0.0000 C   0  0  0  0  0  0  0  0  0  0  0  0
   -1.6852   -2.4718    0.0000 C   0  0  0  0  0  0  0  0  0  0  0  0
   -1.3515   -3.9342    0.0000 C   0  0  0  0  0  0  0  0  0  0  0  0
   -0.0000   -4.5850    0.0000 N   0  0  0  0  0  0  0  0  0  0  0  0
   -0.0000   -6.0850    0.0000 C   0  0  0  0  0  0  0  0  0  0  0  0
    1.3515   -3.9342    0.0000 C   0  0  0  0  0  0  0  0  0  0  0  0
    1.6852   -2.4718    0.0000 C   0  0  0  0  0  0  0  0  0  0  0  0
    0.7500   -1.2990    0.0000 C   0  0  0  0  0  0  0  0  0  0  0  0
    1.5000    0.0000    0.0000 C   0  0  0  0  0  0  0  0  0  0  0  0
    0.7500    1.2990    0.0000 C   0  0  0  0  0  0  0  0  0  0  0  0
   -0.7500    1.2990    0.0000 C   0  0  0  0  0  0  0  0  0  0  0  0
   -1.5000    2.5981    0.0000 N   0  0  0  0  0  0  0  0  0  0  0  0
   -0.7500    3.8971    0.0000 C   0  0  0  0  0  0  0  0  0  0  0  0
    0.7500    3.8971    0.0000 N   0  0  0  0  0  0  0  0  0  0  0  0
    1.5000    5.1962    0.0000 C   0  0  0  0  0  0  0  0  0  0  0  0
    0.7500    6.4952    0.0000 C   0  0  0  0  0  0  0  0  0  0  0  0
    1.5000    7.7942    0.0000 Cl  0  0  0  0  0  0  0  0  0  0  0  0
   -0.7500    6.4952    0.0000 C   0  0  0  0  0  0  0  0  0  0  0  0
   -1.5000    7.7942    0.0000 N   0  0  0  0  0  0  0  0  0  0  0  0
   -3.0000    7.7942    0.0000 C   0  0  0  0  0  0  0  0  0  0  0  0
   -3.7500    6.4952    0.0000 C   0  0  0  0  0  0  0  0  0  0  0  0
   -5.2500    6.4952    0.0000 C   0  0  0  0  0  0  0  0  0  0  0  0
   -6.0000    7.7942    0.0000 C   0  0  0  0  0  0  0  0  0  0  0  0
   -5.2500    9.0933    0.0000 C   0  0  0  0  0  0  0  0  0  0  0  0
   -3.7500    9.0933    0.0000 C   0  0  0  0  0  0  0  0  0  0  0  0
   -3.0000   10.3923    0.0000 S   0  0  0  0  0  0  0  0  0  0  0  0
   -1.7010    9.6423    0.0000 O   0  0  0  0  0  0  0  0  0  0  0  0
   -4.2990   11.1423    0.0000 O   0  0  0  0  0  0  0  0  0  0  0  0
   -2.2500   11.6913    0.0000 C   0  0  0  0  0  0  0  0  0  0  0  0
   -3.0000   12.9904    0.0000 C   0  0  0  0  0  0  0  0  0  0  0  0
   -0.7500   11.6913    0.0000 C   0  0  0  0  0  0  0  0  0  0  0  0
   -1.5000    5.1962    0.0000 N   0  0  0  0  0  0  0  0  0  0  0  0
   -1.5000    0.0000    0.0000 C   0  0  0  0  0  0  0  0  0  0  0  0
   -0.7500   -1.2990    0.0000 C   0  0  0  0  0  0  0  0  0  0  0  0
  1  2  1  0
  2  3  1  0
  3  4  1  0
  4  5  1  0
  4  6  1  0
  6  7  1  0
  7  8  1  0
  8  9  2  0
  9 10  1  0
 10 11  2  0
 11 12  1  0
 12 13  1  0
 13 14  2  0
 14 15  1  0
 15 16  2  0
 16 17  1  0
 16 18  1  0
 18 19  1  0
 19 20  1  0
 20 21  2  0
 21 22  1  0
 22 23  2  0
 23 24  1  0
 24 25  2  0
 25 26  1  0
 26 27  2  0
 26 28  2  0
 26 29  1  0
 29 30  1  0
 29 31  1  0
 18 32  2  0
 11 33  1  0
 33 34  2  0
 34  2  1  0
 34  8  1  0
 32 13  1  0
 25 20  1  0
M  END
>  <Compound_ID>  (23) 
CHEMBL3263990

>  <Molecule Name>  (23) 
nan

>  <Molecular Weight>  (23) 
500.07

>  <AlogP>  (23) 
5.39

>  <Smiles>  (23) 
CC1CN(C)CCc2ccc(Nc3ncc(Cl)c(Nc4ccccc4S(=O)(=O)C(C)C)n3)cc21

>  <Standard Type>  (23) 
IC50

>  <Standard Relation>  (23) 
'='

>  <Standard Units>  (23) 
nM

>  <Standard Value>  (23) 
3.5

>  <Assay ChEMBL ID>  (23) 
CHEMBL3267806

>  <Assay Description>  (23) 
Inhibition of purified recombinant ALK (unknown origin) after 60 mins by ELISA

>  <BAO Format ID>  (23) 
BAO_0000357

>  <BAO Label>  (23) 
single protein format

>  <Assay Organism>  (23) 
Homo sapiens

>  <Target ChEMBL ID>  (23) 
CHEMBL4247

>  <Target Name>  (23) 
ALK tyrosine kinase receptor

>  <Target Organism>  (23) 
Homo sapiens

>  <Target Type>  (23) 
SINGLE PROTEIN

>  <Document ChEMBL ID>  (23) 
CHEMBL3259567

>  <Source Description>  (23) 
Scientific Literature

>  <Document Journal>  (23) 
ACS Med Chem Lett

>  <Document Year>  (23) 
2014.0

>  <Active>  (23) 
1.0

>  <bits>  (23) 
<rdkit.DataStructs.cDataStructs.ExplicitBitVect object at 0x000002422C1B7B50>

>  <Group>  (23) 
G2

$$$$

     RDKit          2D

 27 30  0  0  0  0  0  0  0  0999 V2000
   -5.2802   -7.7620    0.0000 C   0  0  0  0  0  0  0  0  0  0  0  0
   -4.1655   -6.7583    0.0000 C   0  0  0  0  0  0  0  0  0  0  0  0
   -2.6983   -7.0701    0.0000 C   0  0  0  0  0  0  0  0  0  0  0  0
   -1.9483   -5.7711    0.0000 C   0  0  0  0  0  0  0  0  0  0  0  0
   -0.4565   -5.6143    0.0000 C   0  0  0  0  0  0  0  0  0  0  0  0
    0.4252   -6.8278    0.0000 C   0  0  0  0  0  0  0  0  0  0  0  0
    1.9170   -6.6710    0.0000 C   0  0  0  0  0  0  0  0  0  0  0  0
    2.5271   -5.3007    0.0000 C   0  0  0  0  0  0  0  0  0  0  0  0
    1.6454   -4.0872    0.0000 C   0  0  0  0  0  0  0  0  0  0  0  0
    2.2555   -2.7169    0.0000 N   0  0  0  0  0  0  0  0  0  0  0  0
    3.7473   -2.5601    0.0000 C   0  0  0  0  0  0  0  0  0  0  0  0
    4.3574   -1.1898    0.0000 C   0  0  0  0  0  0  0  0  0  0  0  0
    5.8492   -1.0330    0.0000 N   0  0  0  0  0  0  0  0  0  0  0  0
    0.1536   -4.2440    0.0000 C   0  0  0  0  0  0  0  0  0  0  0  0
   -2.9520   -4.6564    0.0000 C   0  0  0  0  0  0  0  0  0  0  0  0
   -2.6401   -3.1891    0.0000 C   0  0  0  0  0  0  0  0  0  0  0  0
   -3.7548   -2.1855    0.0000 C   0  0  0  0  0  0  0  0  0  0  0  0
   -5.2220   -2.4973    0.0000 C   0  0  0  0  0  0  0  0  0  0  0  0
   -5.8322   -3.8676    0.0000 O   0  0  0  0  0  0  0  0  0  0  0  0
   -5.9720   -1.1983    0.0000 N   0  0  0  0  0  0  0  0  0  0  0  0
   -4.9684   -0.0836    0.0000 C   0  0  0  0  0  0  0  0  0  0  0  0
   -5.1251    1.4082    0.0000 C   0  0  0  0  0  0  0  0  0  0  0  0
   -3.9116    2.2899    0.0000 C   0  0  0  0  0  0  0  0  0  0  0  0
   -2.5413    1.6798    0.0000 C   0  0  0  0  0  0  0  0  0  0  0  0
   -2.3845    0.1880    0.0000 C   0  0  0  0  0  0  0  0  0  0  0  0
   -3.5980   -0.6937    0.0000 C   0  0  0  0  0  0  0  0  0  0  0  0
   -4.3223   -5.2665    0.0000 N   0  0  0  0  0  0  0  0  0  0  0  0
  1  2  1  0
  2  3  2  0
  3  4  1  0
  4  5  1  0
  5  6  2  0
  6  7  1  0
  7  8  2  0
  8  9  1  0
  9 10  1  0
 10 11  1  0
 11 12  1  0
 12 13  1  0
  9 14  2  0
  4 15  2  0
 15 16  1  0
 16 17  2  0
 17 18  1  0
 18 19  2  0
 18 20  1  0
 20 21  1  0
 21 22  2  0
 22 23  1  0
 23 24  2  0
 24 25  1  0
 25 26  2  0
 15 27  1  0
 27  2  1  0
 14  5  1  0
 26 17  1  0
 26 21  1  0
M  END
>  <Compound_ID>  (24) 
CHEMBL1778722

>  <Molecule Name>  (24) 
nan

>  <Molecular Weight>  (24) 
358.45

>  <AlogP>  (24) 
3.85

>  <Smiles>  (24) 
Cc1cc(-c2cccc(NCCN)c2)c(/C=C2\C(=O)Nc3ccccc32)[nH]1

>  <Standard Type>  (24) 
IC50

>  <Standard Relation>  (24) 
'='

>  <Standard Units>  (24) 
nM

>  <Standard Value>  (24) 
89.1

>  <Assay ChEMBL ID>  (24) 
CHEMBL1781025

>  <Assay Description>  (24) 
Inhibition of ALK using FL-Peptide 13, 5-FAM-KKSRGDYMTMQIG-CONH2 substrate after 60 mins by mobility shift assay

>  <BAO Format ID>  (24) 
BAO_0000357

>  <BAO Label>  (24) 
single protein format

>  <Assay Organism>  (24) 
None

>  <Target ChEMBL ID>  (24) 
CHEMBL4247

>  <Target Name>  (24) 
ALK tyrosine kinase receptor

>  <Target Organism>  (24) 
Homo sapiens

>  <Target Type>  (24) 
SINGLE PROTEIN

>  <Document ChEMBL ID>  (24) 
CHEMBL1777751

>  <Source Description>  (24) 
Scientific Literature

>  <Document Journal>  (24) 
Bioorg Med Chem

>  <Document Year>  (24) 
2011.0

>  <Active>  (24) 
1.0

>  <bits>  (24) 
<rdkit.DataStructs.cDataStructs.ExplicitBitVect object at 0x000002422C1B49E0>

>  <Group>  (24) 
G2

$$$$

     RDKit          2D

 36 39  0  0  0  0  0  0  0  0999 V2000
   13.1849   10.5801    0.0000 C   0  0  0  0  0  0  0  0  0  0  0  0
   11.7225   10.9139    0.0000 C   0  0  0  0  0  0  0  0  0  0  0  0
   10.7022    9.8143    0.0000 S   0  0  0  0  0  0  0  0  0  0  0  0
   11.8018    8.7940    0.0000 O   0  0  0  0  0  0  0  0  0  0  0  0
    9.6026   10.8346    0.0000 O   0  0  0  0  0  0  0  0  0  0  0  0
    9.6820    8.7147    0.0000 N   0  0  0  0  0  0  0  0  0  0  0  0
   10.1241    7.2814    0.0000 C   0  0  0  0  0  0  0  0  0  0  0  0
   11.5865    6.9476    0.0000 C   0  0  0  0  0  0  0  0  0  0  0  0
   12.0286    5.5142    0.0000 C   0  0  0  0  0  0  0  0  0  0  0  0
   11.0084    4.4146    0.0000 C   0  0  0  0  0  0  0  0  0  0  0  0
    9.5460    4.7484    0.0000 C   0  0  0  0  0  0  0  0  0  0  0  0
    9.1038    6.1818    0.0000 C   0  0  0  0  0  0  0  0  0  0  0  0
    7.6414    6.5156    0.0000 N   0  0  0  0  0  0  0  0  0  0  0  0
    6.6212    5.4160    0.0000 C   0  0  0  0  0  0  0  0  0  0  0  0
    5.1588    5.7498    0.0000 N   0  0  0  0  0  0  0  0  0  0  0  0
    4.1385    4.6502    0.0000 C   0  0  0  0  0  0  0  0  0  0  0  0
    2.6761    4.9840    0.0000 N   0  0  0  0  0  0  0  0  0  0  0  0
    1.6559    3.8844    0.0000 C   0  0  0  0  0  0  0  0  0  0  0  0
    0.1935    4.2182    0.0000 C   0  0  0  0  0  0  0  0  0  0  0  0
   -0.8268    3.1186    0.0000 C   0  0  0  0  0  0  0  0  0  0  0  0
   -0.3846    1.6852    0.0000 C   0  0  0  0  0  0  0  0  0  0  0  0
    1.0777    1.3515    0.0000 C   0  0  0  0  0  0  0  0  0  0  0  0
    2.0980    2.4510    0.0000 C   0  0  0  0  0  0  0  0  0  0  0  0
    1.7286    0.0000    0.0000 C   0  0  0  0  0  0  0  0  0  0  0  0
    1.0777   -1.3515    0.0000 C   0  0  0  0  0  0  0  0  0  0  0  0
   -0.3846   -1.6852    0.0000 N   0  0  0  0  0  0  0  0  0  0  0  0
   -0.7184   -3.1476    0.0000 C   0  0  0  0  0  0  0  0  0  0  0  0
   -2.1518   -3.5898    0.0000 C   0  0  0  0  0  0  0  0  0  0  0  0
   -2.4856   -5.0522    0.0000 O   0  0  0  0  0  0  0  0  0  0  0  0
   -3.9189   -5.4943    0.0000 C   0  0  0  0  0  0  0  0  0  0  0  0
   -1.5574   -0.7500    0.0000 C   0  0  0  0  0  0  0  0  0  0  0  0
   -1.5574    0.7500    0.0000 C   0  0  0  0  0  0  0  0  0  0  0  0
    4.5807    3.2168    0.0000 N   0  0  0  0  0  0  0  0  0  0  0  0
    6.0430    2.8830    0.0000 C   0  0  0  0  0  0  0  0  0  0  0  0
    7.0633    3.9826    0.0000 C   0  0  0  0  0  0  0  0  0  0  0  0
    8.5257    3.6488    0.0000 Cl  0  0  0  0  0  0  0  0  0  0  0  0
  1  2  1  0
  2  3  1  0
  3  4  2  0
  3  5  2  0
  3  6  1  0
  7  6  1  6
  7  8  1  0
  8  9  1  0
  9 10  1  0
 10 11  1  0
 11 12  1  0
 12 13  1  1
 13 14  1  0
 14 15  2  0
 15 16  1  0
 16 17  1  0
 17 18  1  0
 18 19  2  0
 19 20  1  0
 20 21  2  0
 21 22  1  0
 22 23  2  0
 22 24  1  0
 24 25  1  0
 25 26  1  0
 26 27  1  0
 27 28  1  0
 28 29  1  0
 29 30  1  0
 26 31  1  0
 31 32  1  0
 16 33  2  0
 33 34  1  0
 34 35  2  0
 35 36  1  0
 12  7  1  0
 35 14  1  0
 23 18  1  0
 32 21  1  0
M  END
>  <Compound_ID>  (25) 
CHEMBL1796249

>  <Molecule Name>  (25) 
nan

>  <Molecular Weight>  (25) 
537.13

>  <AlogP>  (25) 
3.58

>  <Smiles>  (25) 
CCS(=O)(=O)N[C@@H]1CCCC[C@H]1Nc1nc(Nc2ccc3c(c2)CCN(CCOC)CC3)ncc1Cl

>  <Standard Type>  (25) 
IC50

>  <Standard Relation>  (25) 
'='

>  <Standard Units>  (25) 
nM

>  <Standard Value>  (25) 
50.0

>  <Assay ChEMBL ID>  (25) 
CHEMBL1798383

>  <Assay Description>  (25) 
Inhibition of ALK

>  <BAO Format ID>  (25) 
BAO_0000357

>  <BAO Label>  (25) 
single protein format

>  <Assay Organism>  (25) 
None

>  <Target ChEMBL ID>  (25) 
CHEMBL4247

>  <Target Name>  (25) 
ALK tyrosine kinase receptor

>  <Target Organism>  (25) 
Homo sapiens

>  <Target Type>  (25) 
SINGLE PROTEIN

>  <Document ChEMBL ID>  (25) 
CHEMBL1795227

>  <Source Description>  (25) 
Scientific Literature

>  <Document Journal>  (25) 
Bioorg Med Chem Lett

>  <Document Year>  (25) 
2011.0

>  <Active>  (25) 
1.0

>  <bits>  (25) 
<rdkit.DataStructs.cDataStructs.ExplicitBitVect object at 0x000002422C1B65E0>

>  <Group>  (25) 
G2

$$$$

     RDKit          2D

 46 50  0  0  0  0  0  0  0  0999 V2000
    3.7500   -1.2990    0.0000 C   0  0  0  0  0  0  0  0  0  0  0  0
    3.0000    0.0000    0.0000 O   0  0  0  0  0  0  0  0  0  0  0  0
    1.5000    0.0000    0.0000 C   0  0  0  0  0  0  0  0  0  0  0  0
    0.7500   -1.2990    0.0000 C   0  0  0  0  0  0  0  0  0  0  0  0
   -0.7500   -1.2990    0.0000 C   0  0  0  0  0  0  0  0  0  0  0  0
   -1.5000   -2.5981    0.0000 N   0  0  0  0  0  0  0  0  0  0  0  0
   -3.0000   -2.5981    0.0000 C   0  0  0  0  0  0  0  0  0  0  0  0
   -3.7500   -3.8971    0.0000 C   0  0  0  0  0  0  0  0  0  0  0  0
   -3.0000   -5.1962    0.0000 N   0  0  0  0  0  0  0  0  0  0  0  0
   -3.7500   -6.4952    0.0000 C   0  0  0  0  0  0  0  0  0  0  0  0
   -5.2500   -6.4952    0.0000 C   0  0  0  0  0  0  0  0  0  0  0  0
   -3.0000   -7.7942    0.0000 O   0  0  0  0  0  0  0  0  0  0  0  0
   -1.5000   -5.1962    0.0000 C   0  0  0  0  0  0  0  0  0  0  0  0
   -0.7500   -3.8971    0.0000 C   0  0  0  0  0  0  0  0  0  0  0  0
   -1.5000    0.0000    0.0000 C   0  0  0  0  0  0  0  0  0  0  0  0
   -0.7500    1.2990    0.0000 C   0  0  0  0  0  0  0  0  0  0  0  0
    0.7500    1.2990    0.0000 C   0  0  0  0  0  0  0  0  0  0  0  0
    1.5000    2.5981    0.0000 N   0  0  0  0  0  0  0  0  0  0  0  0
    3.0000    2.5981    0.0000 C   0  0  0  0  0  0  0  0  0  0  0  0
    3.7500    1.2990    0.0000 N   0  0  0  0  0  0  0  0  0  0  0  0
    5.2500    1.2990    0.0000 C   0  0  0  0  0  0  0  0  0  0  0  0
    6.0000    2.5981    0.0000 C   0  0  0  0  0  0  0  0  0  0  0  0
    7.5000    2.5981    0.0000 Cl  0  0  0  0  0  0  0  0  0  0  0  0
    5.2500    3.8971    0.0000 C   0  0  0  0  0  0  0  0  0  0  0  0
    6.0000    5.1962    0.0000 N   0  0  0  0  0  0  0  0  0  0  0  0
    5.2500    6.4952    0.0000 C   0  0  0  0  0  0  0  0  0  0  0  0
    6.0000    7.7942    0.0000 C   0  0  0  0  0  0  0  0  0  0  0  0
    5.2500    9.0933    0.0000 C   0  0  0  0  0  0  0  0  0  0  0  0
    3.7500    9.0933    0.0000 C   0  0  0  0  0  0  0  0  0  0  0  0
    3.0000   10.3923    0.0000 N   0  0  0  0  0  0  0  0  0  0  0  0
    3.7500   11.6913    0.0000 C   0  0  0  0  0  0  0  0  0  0  0  0
    3.0000   12.9904    0.0000 C   0  0  0  0  0  0  0  0  0  0  0  0
    1.5000   12.9904    0.0000 N   0  0  0  0  0  0  0  0  0  0  0  0
    0.7500   14.2894    0.0000 C   0  0  0  0  0  0  0  0  0  0  0  0
   -0.7500   14.2894    0.0000 O   0  0  0  0  0  0  0  0  0  0  0  0
    1.5000   15.5885    0.0000 C   0  0  0  0  0  0  0  0  0  0  0  0
    0.7500   16.8875    0.0000 O   0  0  0  0  0  0  0  0  0  0  0  0
    0.7500   11.6913    0.0000 C   0  0  0  0  0  0  0  0  0  0  0  0
    1.5000   10.3923    0.0000 C   0  0  0  0  0  0  0  0  0  0  0  0
    3.0000    7.7942    0.0000 C   0  0  0  0  0  0  0  0  0  0  0  0
    3.7500    6.4952    0.0000 C   0  0  0  0  0  0  0  0  0  0  0  0
    3.0000    5.1962    0.0000 O   0  0  0  0  0  0  0  0  0  0  0  0
    1.5000    5.1962    0.0000 C   0  0  0  0  0  0  0  0  0  0  0  0
    0.7500    3.8971    0.0000 F   0  0  0  0  0  0  0  0  0  0  0  0
    0.7500    6.4952    0.0000 F   0  0  0  0  0  0  0  0  0  0  0  0
    3.7500    3.8971    0.0000 N   0  0  0  0  0  0  0  0  0  0  0  0
  1  2  1  0
  2  3  1  0
  3  4  2  0
  4  5  1  0
  5  6  1  0
  6  7  1  0
  7  8  1  0
  8  9  1  0
  9 10  1  0
 10 11  1  0
 10 12  2  0
  9 13  1  0
 13 14  1  0
  5 15  2  0
 15 16  1  0
 16 17  2  0
 17 18  1  0
 18 19  1  0
 19 20  2  0
 20 21  1  0
 21 22  2  0
 22 23  1  0
 22 24  1  0
 24 25  1  0
 25 26  1  0
 26 27  2  0
 27 28  1  0
 28 29  2  0
 29 30  1  0
 30 31  1  0
 31 32  1  0
 32 33  1  0
 33 34  1  0
 34 35  2  0
 34 36  1  0
 36 37  1  0
 33 38  1  0
 38 39  1  0
 29 40  1  0
 40 41  2  0
 41 42  1  0
 42 43  1  0
 43 44  1  0
 43 45  1  0
 24 46  2  0
 17  3  1  0
 46 19  1  0
 14  6  1  0
 41 26  1  0
 39 30  1  0
M  END
>  <Compound_ID>  (26) 
CHEMBL3953919

>  <Molecule Name>  (26) 
nan

>  <Molecular Weight>  (26) 
661.11

>  <AlogP>  (26) 
3.54

>  <Smiles>  (26) 
COc1cc(N2CCN(C(C)=O)CC2)ccc1Nc1ncc(Cl)c(Nc2ccc(N3CCN(C(=O)CO)CC3)cc2OC(F)F)n1

>  <Standard Type>  (26) 
IC50

>  <Standard Relation>  (26) 
'='

>  <Standard Units>  (26) 
nM

>  <Standard Value>  (26) 
27.0

>  <Assay ChEMBL ID>  (26) 
CHEMBL3887133

>  <Assay Description>  (26) 
Homogeneous Time-resolved fluorescence (HTRF) Assay: In order to measure the inhibitory activity against ALK, a Grainer 96-well round type bottom plate was added with the compounds (2 μl) prepared in Examples 1 to 89, and mixed with ALK enzyme (1 ul) and a peptide substrate (2 μl) with biotin attached thereto for 15 minutes and cultured thereafter. Here, ATP solution (5 μl) was added thereto and kinase reaction was performed at room temperature for 30 minutes. XL 665 (5 μl), to which Streptavidin dissolved in ethylenediaminetetraacetic acid solution was attached, anti-phosphotyrosine antibody (5 μl), to which europium (Eu3+) was attached, were added to a reaction solution to stop the reaction, cultured for 1 hour, and analyzed using Homogeneous Time-resolved fluorescence (HTRF, Cisbio). The result was read by a Wallac Envision 2103 device at the wavelength range of 615/665 nm.

>  <BAO Format ID>  (26) 
BAO_0000357

>  <BAO Label>  (26) 
single protein format

>  <Assay Organism>  (26) 
None

>  <Target ChEMBL ID>  (26) 
CHEMBL4247

>  <Target Name>  (26) 
ALK tyrosine kinase receptor

>  <Target Organism>  (26) 
Homo sapiens

>  <Target Type>  (26) 
SINGLE PROTEIN

>  <Document ChEMBL ID>  (26) 
CHEMBL3886178

>  <Source Description>  (26) 
BindingDB Database

>  <Document Journal>  (26) 
nan

>  <Document Year>  (26) 
2015.0

>  <Active>  (26) 
1.0

>  <bits>  (26) 
<rdkit.DataStructs.cDataStructs.ExplicitBitVect object at 0x000002422C1B6730>

>  <Group>  (26) 
G2

$$$$

     RDKit          2D

 34 39  0  0  0  0  0  0  0  0999 V2000
    2.6491   -3.5623    0.0000 C   0  0  0  0  0  0  0  0  0  0  0  0
    1.5000   -2.5981    0.0000 C   0  0  0  0  0  0  0  0  0  0  0  0
    2.6491   -1.6339    0.0000 C   0  0  0  0  0  0  0  0  0  0  0  0
    0.7500   -1.2990    0.0000 C   0  0  0  0  0  0  0  0  0  0  0  0
    1.5000    0.0000    0.0000 C   0  0  0  0  0  0  0  0  0  0  0  0
    0.7500    1.2990    0.0000 C   0  0  0  0  0  0  0  0  0  0  0  0
    1.5000    2.5981    0.0000 N   0  0  0  0  0  0  0  0  0  0  0  0
    3.0000    2.5981    0.0000 C   0  0  0  0  0  0  0  0  0  0  0  0
    3.7500    3.8971    0.0000 C   0  0  0  0  0  0  0  0  0  0  0  0
    3.0000    5.1962    0.0000 C   0  0  0  0  0  0  0  0  0  0  0  0
    3.7500    6.4952    0.0000 N   0  0  0  0  0  0  0  0  0  0  0  0
    5.2500    6.4952    0.0000 C   0  0  0  0  0  0  0  0  0  0  0  0
    6.0000    7.7942    0.0000 C   0  0  0  0  0  0  0  0  0  0  0  0
    5.2500    9.0933    0.0000 C   0  0  0  0  0  0  0  0  0  0  0  0
    3.7500    9.0933    0.0000 C   0  0  0  0  0  0  0  0  0  0  0  0
    3.0000    7.7942    0.0000 C   0  0  0  0  0  0  0  0  0  0  0  0
    1.5000    5.1962    0.0000 C   0  0  0  0  0  0  0  0  0  0  0  0
    0.7500    3.8971    0.0000 C   0  0  0  0  0  0  0  0  0  0  0  0
   -0.7500    1.2990    0.0000 N   0  0  0  0  0  0  0  0  0  0  0  0
   -1.5000    0.0000    0.0000 C   0  0  0  0  0  0  0  0  0  0  0  0
   -0.7500   -1.2990    0.0000 C   0  0  0  0  0  0  0  0  0  0  0  0
   -1.5000   -2.5981    0.0000 C   0  0  0  0  0  0  0  0  0  0  0  0
   -3.0000   -2.5981    0.0000 O   0  0  0  0  0  0  0  0  0  0  0  0
   -0.7500   -3.8971    0.0000 C   0  0  0  0  0  0  0  0  0  0  0  0
    0.7500   -3.8971    0.0000 C   0  0  0  0  0  0  0  0  0  0  0  0
    1.2135   -5.3237    0.0000 N   0  0  0  0  0  0  0  0  0  0  0  0
    0.0000   -6.2054    0.0000 C   0  0  0  0  0  0  0  0  0  0  0  0
   -0.1568   -7.6972    0.0000 C   0  0  0  0  0  0  0  0  0  0  0  0
   -1.5271   -8.3073    0.0000 C   0  0  0  0  0  0  0  0  0  0  0  0
   -1.6839   -9.7990    0.0000 C   0  0  0  0  0  0  0  0  0  0  0  0
   -1.8407  -11.2908    0.0000 N   0  0  0  0  0  0  0  0  0  0  0  0
   -2.7406   -7.4256    0.0000 C   0  0  0  0  0  0  0  0  0  0  0  0
   -2.5838   -5.9338    0.0000 C   0  0  0  0  0  0  0  0  0  0  0  0
   -1.2135   -5.3237    0.0000 C   0  0  0  0  0  0  0  0  0  0  0  0
  1  2  1  0
  2  3  1  0
  2  4  1  0
  4  5  2  0
  5  6  1  0
  6  7  1  0
  7  8  1  0
  8  9  1  0
  9 10  1  0
 10 11  1  0
 11 12  1  0
 12 13  1  0
 13 14  1  0
 14 15  1  0
 15 16  1  0
 10 17  1  0
 17 18  1  0
  6 19  2  0
 19 20  1  0
 20 21  2  0
 21 22  1  0
 22 23  2  0
 22 24  1  0
 24 25  2  0
 25 26  1  0
 26 27  1  0
 27 28  2  0
 28 29  1  0
 29 30  1  0
 30 31  3  0
 29 32  2  0
 32 33  1  0
 33 34  2  0
 25  2  1  0
 34 27  1  0
 21  4  1  0
 34 24  1  0
 18  7  1  0
 16 11  1  0
M  END
>  <Compound_ID>  (27) 
CHEMBL3969707

>  <Molecule Name>  (27) 
nan

>  <Molecular Weight>  (27) 
453.59

>  <AlogP>  (27) 
4.76

>  <Smiles>  (27) 
CC1(C)c2cc(N3CCC(N4CCCCC4)CC3)ncc2C(=O)c2c1[nH]c1cc(C#N)ccc21

>  <Standard Type>  (27) 
IC50

>  <Standard Relation>  (27) 
'='

>  <Standard Units>  (27) 
nM

>  <Standard Value>  (27) 
0.4938

>  <Assay ChEMBL ID>  (27) 
CHEMBL3887074

>  <Assay Description>  (27) 
Inhibition Assay: ALK-inhibiting activity was measured by following an activity of inhibiting phosphorylation by biotinylated peptide (EGPWLEEEEEAYGWMDF). For the detection of phosphorylation of the biotinylated peptide, time-resolved fluorescence measurement was performed using an anti-phosphorylated tyrosine antibody labeled with europium cryptate and streptavidin conjugated to XL665, i.e., an allophycocyanin derivative.

>  <BAO Format ID>  (27) 
BAO_0000357

>  <BAO Label>  (27) 
single protein format

>  <Assay Organism>  (27) 
Homo sapiens

>  <Target ChEMBL ID>  (27) 
CHEMBL4247

>  <Target Name>  (27) 
ALK tyrosine kinase receptor

>  <Target Organism>  (27) 
Homo sapiens

>  <Target Type>  (27) 
SINGLE PROTEIN

>  <Document ChEMBL ID>  (27) 
CHEMBL3886150

>  <Source Description>  (27) 
BindingDB Database

>  <Document Journal>  (27) 
nan

>  <Document Year>  (27) 
2015.0

>  <Active>  (27) 
1.0

>  <bits>  (27) 
<rdkit.DataStructs.cDataStructs.ExplicitBitVect object at 0x000002422C1B7300>

>  <Group>  (27) 
G2

$$$$

     RDKit          2D

 48 52  0  0  0  0  0  0  0  0999 V2000
    0.5271    8.0861    0.0000 C   0  0  0  0  0  0  0  0  0  0  0  0
   -0.8995    7.6226    0.0000 C   0  0  0  0  0  0  0  0  0  0  0  0
   -1.2114    6.1554    0.0000 C   0  0  0  0  0  0  0  0  0  0  0  0
   -2.6380    5.6918    0.0000 C   0  0  0  0  0  0  0  0  0  0  0  0
   -2.9499    4.2246    0.0000 N   0  0  0  0  0  0  0  0  0  0  0  0
   -1.8351    3.2209    0.0000 C   0  0  0  0  0  0  0  0  0  0  0  0
   -0.4086    3.6844    0.0000 N   0  0  0  0  0  0  0  0  0  0  0  0
    0.7062    2.6807    0.0000 C   0  0  0  0  0  0  0  0  0  0  0  0
    2.1328    3.1443    0.0000 N   0  0  0  0  0  0  0  0  0  0  0  0
    2.4446    4.6115    0.0000 C   0  0  0  0  0  0  0  0  0  0  0  0
    1.3299    5.6152    0.0000 C   0  0  0  0  0  0  0  0  0  0  0  0
    1.6418    7.0824    0.0000 C   0  0  0  0  0  0  0  0  0  0  0  0
    3.0684    7.5459    0.0000 C   0  0  0  0  0  0  0  0  0  0  0  0
    4.1831    6.5422    0.0000 C   0  0  0  0  0  0  0  0  0  0  0  0
    3.8712    5.0750    0.0000 C   0  0  0  0  0  0  0  0  0  0  0  0
    4.9859    4.0713    0.0000 S   0  0  0  0  0  0  0  0  0  0  0  0
    3.9822    2.9566    0.0000 O   0  0  0  0  0  0  0  0  0  0  0  0
    5.9896    5.1860    0.0000 O   0  0  0  0  0  0  0  0  0  0  0  0
    6.1006    3.0676    0.0000 C   0  0  0  0  0  0  0  0  0  0  0  0
    5.7888    1.6004    0.0000 C   0  0  0  0  0  0  0  0  0  0  0  0
    7.5272    3.5312    0.0000 C   0  0  0  0  0  0  0  0  0  0  0  0
    0.3943    1.2135    0.0000 C   0  0  0  0  0  0  0  0  0  0  0  0
    1.2760    0.0000    0.0000 C   0  0  0  0  0  0  0  0  0  0  0  0
    2.7760    0.0000    0.0000 C   0  0  0  0  0  0  0  0  0  0  0  0
    0.3943   -1.2135    0.0000 N   0  0  0  0  0  0  0  0  0  0  0  0
   -1.0323   -0.7500    0.0000 N   0  0  0  0  0  0  0  0  0  0  0  0
   -1.0323    0.7500    0.0000 C   0  0  0  0  0  0  0  0  0  0  0  0
   -2.1470    1.7537    0.0000 N   0  0  0  0  0  0  0  0  0  0  0  0
   -3.7527    6.6955    0.0000 C   0  0  0  0  0  0  0  0  0  0  0  0
   -5.1793    6.2320    0.0000 O   0  0  0  0  0  0  0  0  0  0  0  0
   -6.2940    7.2357    0.0000 C   0  0  0  0  0  0  0  0  0  0  0  0
   -7.7206    6.7722    0.0000 C   0  0  0  0  0  0  0  0  0  0  0  0
   -5.9821    8.7029    0.0000 C   0  0  0  0  0  0  0  0  0  0  0  0
   -3.4408    8.1628    0.0000 C   0  0  0  0  0  0  0  0  0  0  0  0
   -2.0143    8.6263    0.0000 C   0  0  0  0  0  0  0  0  0  0  0  0
   -1.7024   10.0935    0.0000 C   0  0  0  0  0  0  0  0  0  0  0  0
   -0.2758   10.5570    0.0000 C   0  0  0  0  0  0  0  0  0  0  0  0
    0.0361   12.0242    0.0000 C   0  0  0  0  0  0  0  0  0  0  0  0
   -1.0786   13.0279    0.0000 N   0  0  0  0  0  0  0  0  0  0  0  0
   -0.7668   14.4952    0.0000 C   0  0  0  0  0  0  0  0  0  0  0  0
    0.6598   14.9587    0.0000 C   0  0  0  0  0  0  0  0  0  0  0  0
    1.7745   13.9550    0.0000 O   0  0  0  0  0  0  0  0  0  0  0  0
    0.9717   16.4259    0.0000 C   0  0  0  0  0  0  0  0  0  0  0  0
    1.2835   17.8931    0.0000 F   0  0  0  0  0  0  0  0  0  0  0  0
    2.4389   16.1140    0.0000 F   0  0  0  0  0  0  0  0  0  0  0  0
   -0.4955   16.7378    0.0000 F   0  0  0  0  0  0  0  0  0  0  0  0
   -2.5052   12.5644    0.0000 C   0  0  0  0  0  0  0  0  0  0  0  0
   -2.8171   11.0972    0.0000 C   0  0  0  0  0  0  0  0  0  0  0  0
  1  2  1  0
  2  3  2  0
  3  4  1  0
  4  5  1  0
  5  6  1  0
  6  7  1  0
  7  8  2  0
  8  9  1  0
  9 10  1  0
 10 11  2  0
 11 12  1  0
 12 13  2  0
 13 14  1  0
 14 15  2  0
 15 16  1  0
 16 17  2  0
 16 18  2  0
 16 19  1  0
 19 20  1  0
 19 21  1  0
  8 22  1  0
 22 23  2  0
 23 24  1  0
 23 25  1  0
 25 26  1  0
 26 27  2  0
 27 28  1  0
  4 29  2  0
 29 30  1  0
 30 31  1  0
 31 32  1  0
 31 33  1  0
 29 34  1  0
 34 35  2  0
 35 36  1  0
 36 37  1  0
 37 38  1  0
 38 39  1  0
 39 40  1  0
 40 41  1  0
 41 42  1  1
 41 43  1  0
 43 44  1  0
 43 45  1  0
 43 46  1  0
 39 47  1  0
 47 48  1  0
 35  2  1  0
 48 36  1  0
 28  6  2  0
 15 10  1  0
 27 22  1  0
M  END
>  <Compound_ID>  (28) 
CHEMBL3651869

>  <Molecule Name>  (28) 
nan

>  <Molecular Weight>  (28) 
689.8

>  <AlogP>  (28) 
6.53

>  <Smiles>  (28) 
Cc1cc(Nc2nc(Nc3ccccc3S(=O)(=O)C(C)C)c3c(C)[nH]nc3n2)c(OC(C)C)cc1C1CCN(C[C@H](O)C(F)(F)F)CC1

>  <Standard Type>  (28) 
IC50

>  <Standard Relation>  (28) 
'='

>  <Standard Units>  (28) 
nM

>  <Standard Value>  (28) 
87.0

>  <Assay ChEMBL ID>  (28) 
CHEMBL3705165

>  <Assay Description>  (28) 
Enzyme Assay: The inhibition of ALK tyrosine kinase activity may be demonstrated using known methods, for example using the recombinant kinase domain of the ALK in analogy to the VEGF-R kinase assay described in J. Wood et al. Cancer Res. 60, 2178-2189 (2000).

>  <BAO Format ID>  (28) 
BAO_0000357

>  <BAO Label>  (28) 
single protein format

>  <Assay Organism>  (28) 
Homo sapiens

>  <Target ChEMBL ID>  (28) 
CHEMBL4247

>  <Target Name>  (28) 
ALK tyrosine kinase receptor

>  <Target Organism>  (28) 
Homo sapiens

>  <Target Type>  (28) 
SINGLE PROTEIN

>  <Document ChEMBL ID>  (28) 
CHEMBL3638924

>  <Source Description>  (28) 
BindingDB Database

>  <Document Journal>  (28) 
nan

>  <Document Year>  (28) 
2013.0

>  <Active>  (28) 
1.0

>  <bits>  (28) 
<rdkit.DataStructs.cDataStructs.ExplicitBitVect object at 0x000002422C1B78B0>

>  <Group>  (28) 
G2

$$$$

     RDKit          2D

 35 39  0  0  0  0  0  0  0  0999 V2000
   -6.2940    7.2357    0.0000 C   0  0  0  0  0  0  0  0  0  0  0  0
   -5.1793    6.2320    0.0000 O   0  0  0  0  0  0  0  0  0  0  0  0
   -3.7527    6.6955    0.0000 C   0  0  0  0  0  0  0  0  0  0  0  0
   -3.4408    8.1628    0.0000 C   0  0  0  0  0  0  0  0  0  0  0  0
   -2.0143    8.6263    0.0000 C   0  0  0  0  0  0  0  0  0  0  0  0
   -1.7024   10.0935    0.0000 N   0  0  0  0  0  0  0  0  0  0  0  0
   -0.2758   10.5570    0.0000 C   0  0  0  0  0  0  0  0  0  0  0  0
    0.0361   12.0242    0.0000 C   0  0  0  0  0  0  0  0  0  0  0  0
   -1.0786   13.0279    0.0000 N   0  0  0  0  0  0  0  0  0  0  0  0
   -2.5052   12.5644    0.0000 C   0  0  0  0  0  0  0  0  0  0  0  0
   -2.8171   11.0972    0.0000 C   0  0  0  0  0  0  0  0  0  0  0  0
   -0.8995    7.6226    0.0000 C   0  0  0  0  0  0  0  0  0  0  0  0
   -1.2114    6.1554    0.0000 C   0  0  0  0  0  0  0  0  0  0  0  0
   -2.6380    5.6918    0.0000 C   0  0  0  0  0  0  0  0  0  0  0  0
   -2.9499    4.2246    0.0000 N   0  0  0  0  0  0  0  0  0  0  0  0
   -1.8351    3.2209    0.0000 C   0  0  0  0  0  0  0  0  0  0  0  0
   -0.4086    3.6844    0.0000 N   0  0  0  0  0  0  0  0  0  0  0  0
    0.7062    2.6807    0.0000 C   0  0  0  0  0  0  0  0  0  0  0  0
    2.1328    3.1443    0.0000 C   0  0  0  0  0  0  0  0  0  0  0  0
    2.4446    4.6115    0.0000 C   0  0  0  0  0  0  0  0  0  0  0  0
    3.8712    5.0750    0.0000 C   0  0  0  0  0  0  0  0  0  0  0  0
    4.1831    6.5422    0.0000 C   0  0  0  0  0  0  0  0  0  0  0  0
    3.0684    7.5459    0.0000 C   0  0  0  0  0  0  0  0  0  0  0  0
    1.6418    7.0824    0.0000 C   0  0  0  0  0  0  0  0  0  0  0  0
    1.3299    5.6152    0.0000 C   0  0  0  0  0  0  0  0  0  0  0  0
   -0.0967    5.1517    0.0000 Cl  0  0  0  0  0  0  0  0  0  0  0  0
    0.3943    1.2135    0.0000 N   0  0  0  0  0  0  0  0  0  0  0  0
    1.2760    0.0000    0.0000 C   0  0  0  0  0  0  0  0  0  0  0  0
    0.3943   -1.2135    0.0000 C   0  0  0  0  0  0  0  0  0  0  0  0
   -1.0323   -0.7500    0.0000 N   0  0  0  0  0  0  0  0  0  0  0  0
   -1.0323    0.7500    0.0000 C   0  0  0  0  0  0  0  0  0  0  0  0
   -2.1470    1.7537    0.0000 C   0  0  0  0  0  0  0  0  0  0  0  0
   -3.5736    1.2902    0.0000 C   0  0  0  0  0  0  0  0  0  0  0  0
   -4.6883    2.2939    0.0000 N   0  0  0  0  0  0  0  0  0  0  0  0
   -3.8855   -0.1771    0.0000 O   0  0  0  0  0  0  0  0  0  0  0  0
  1  2  1  0
  2  3  1  0
  3  4  2  0
  4  5  1  0
  5  6  1  0
  6  7  1  0
  7  8  1  0
  8  9  1  0
  9 10  1  0
 10 11  1  0
  5 12  2  0
 12 13  1  0
 13 14  2  0
 14 15  1  0
 15 16  1  0
 16 17  1  0
 17 18  2  0
 18 19  1  0
 19 20  1  0
 20 21  2  0
 21 22  1  0
 22 23  2  0
 23 24  1  0
 24 25  2  0
 25 26  1  0
 18 27  1  0
 27 28  1  0
 28 29  2  0
 29 30  1  0
 30 31  2  0
 31 32  1  0
 32 33  1  0
 33 34  1  0
 33 35  2  0
 14  3  1  0
 32 16  2  0
 11  6  1  0
 25 20  1  0
 31 27  1  0
M  END
>  <Compound_ID>  (29) 
CHEMBL3924329

>  <Molecule Name>  (29) 
nan

>  <Molecular Weight>  (29) 
491.98

>  <AlogP>  (29) 
3.23

>  <Smiles>  (29) 
COc1cc(N2CCNCC2)ccc1Nc1nc(Cc2ccccc2Cl)n2ccnc2c1C(N)=O

>  <Standard Type>  (29) 
Ki

>  <Standard Relation>  (29) 
'='

>  <Standard Units>  (29) 
nM

>  <Standard Value>  (29) 
2.0

>  <Assay ChEMBL ID>  (29) 
CHEMBL3887723

>  <Assay Description>  (29) 
Enzyme Inhibition Assay: ALK kinase assays were conducted with the indicated final concentrations unless otherwise specified. In 384 well black plates (Axygen), 8 ul of compound (2% DMSO) was incubated with 8 ul Lck-peptide substrate (0.5 uM, biotin-Ahx-GAEEEIYAAFFA-COOH) and 8 ul of a mixture of ALK (3 nM, Millipore) and ATP (50 uM) in reaction buffer (50 mM Hepes, pH 7.4; 10 mM MgCl2; 2 mM MnCl2; 0.1 mM sodium orthovanadate; 0.01% BSA and 1 mM DTT (added fresh before assay) for 1 h at room temperature. Reactions were then quenched by the addition of 30 ul quench solution (streptavidin-allophycocyanin and Europium-cryptate PT66 monoclonal antibody in 40 mM Hepes, pH 7.4; 480 mM KF; 66 mM EDTA; 0.01% Tween-20; and 0.1% BSA) at room temperature. Plates were read 1 h after quenching on an Envision Multilaber Reader and IC50 values were calculated using a sigmoidal fit of the concentration/inhibition response curves. These values were converted to apparent Ki values.

>  <BAO Format ID>  (29) 
BAO_0000357

>  <BAO Label>  (29) 
single protein format

>  <Assay Organism>  (29) 
Homo sapiens

>  <Target ChEMBL ID>  (29) 
CHEMBL4247

>  <Target Name>  (29) 
ALK tyrosine kinase receptor

>  <Target Organism>  (29) 
Homo sapiens

>  <Target Type>  (29) 
SINGLE PROTEIN

>  <Document ChEMBL ID>  (29) 
CHEMBL3886424

>  <Source Description>  (29) 
BindingDB Database

>  <Document Journal>  (29) 
nan

>  <Document Year>  (29) 
2015.0

>  <Active>  (29) 
1.0

>  <bits>  (29) 
<rdkit.DataStructs.cDataStructs.ExplicitBitVect object at 0x000002422C1B60A0>

>  <Group>  (29) 
G2

$$$$

     RDKit          2D

 47 51  0  0  0  0  0  0  0  0999 V2000
    0.5271    8.0861    0.0000 C   0  0  0  0  0  0  0  0  0  0  0  0
   -0.8995    7.6226    0.0000 C   0  0  0  0  0  0  0  0  0  0  0  0
   -1.2114    6.1554    0.0000 C   0  0  0  0  0  0  0  0  0  0  0  0
   -2.6380    5.6918    0.0000 C   0  0  0  0  0  0  0  0  0  0  0  0
   -2.9499    4.2246    0.0000 N   0  0  0  0  0  0  0  0  0  0  0  0
   -1.8351    3.2209    0.0000 C   0  0  0  0  0  0  0  0  0  0  0  0
   -0.4086    3.6844    0.0000 N   0  0  0  0  0  0  0  0  0  0  0  0
    0.7062    2.6807    0.0000 C   0  0  0  0  0  0  0  0  0  0  0  0
    2.1328    3.1443    0.0000 N   0  0  0  0  0  0  0  0  0  0  0  0
    2.4446    4.6115    0.0000 C   0  0  0  0  0  0  0  0  0  0  0  0
    1.3299    5.6152    0.0000 C   0  0  0  0  0  0  0  0  0  0  0  0
    1.6418    7.0824    0.0000 C   0  0  0  0  0  0  0  0  0  0  0  0
    3.0684    7.5459    0.0000 C   0  0  0  0  0  0  0  0  0  0  0  0
    4.1831    6.5422    0.0000 C   0  0  0  0  0  0  0  0  0  0  0  0
    3.8712    5.0750    0.0000 C   0  0  0  0  0  0  0  0  0  0  0  0
    4.9859    4.0713    0.0000 S   0  0  0  0  0  0  0  0  0  0  0  0
    3.9822    2.9566    0.0000 O   0  0  0  0  0  0  0  0  0  0  0  0
    5.9896    5.1860    0.0000 O   0  0  0  0  0  0  0  0  0  0  0  0
    6.1006    3.0676    0.0000 C   0  0  0  0  0  0  0  0  0  0  0  0
    5.7888    1.6004    0.0000 C   0  0  0  0  0  0  0  0  0  0  0  0
    7.5272    3.5312    0.0000 C   0  0  0  0  0  0  0  0  0  0  0  0
    0.3943    1.2135    0.0000 C   0  0  0  0  0  0  0  0  0  0  0  0
    1.2760    0.0000    0.0000 C   0  0  0  0  0  0  0  0  0  0  0  0
    2.7760    0.0000    0.0000 C   0  0  0  0  0  0  0  0  0  0  0  0
    0.3943   -1.2135    0.0000 N   0  0  0  0  0  0  0  0  0  0  0  0
   -1.0323   -0.7500    0.0000 N   0  0  0  0  0  0  0  0  0  0  0  0
   -1.0323    0.7500    0.0000 C   0  0  0  0  0  0  0  0  0  0  0  0
   -2.1470    1.7537    0.0000 N   0  0  0  0  0  0  0  0  0  0  0  0
   -3.7527    6.6955    0.0000 C   0  0  0  0  0  0  0  0  0  0  0  0
   -5.1793    6.2320    0.0000 O   0  0  0  0  0  0  0  0  0  0  0  0
   -6.2940    7.2357    0.0000 C   0  0  0  0  0  0  0  0  0  0  0  0
   -7.7206    6.7722    0.0000 C   0  0  0  0  0  0  0  0  0  0  0  0
   -5.9821    8.7029    0.0000 C   0  0  0  0  0  0  0  0  0  0  0  0
   -3.4408    8.1628    0.0000 C   0  0  0  0  0  0  0  0  0  0  0  0
   -2.0143    8.6263    0.0000 C   0  0  0  0  0  0  0  0  0  0  0  0
   -1.7024   10.0935    0.0000 C   0  0  0  0  0  0  0  0  0  0  0  0
   -0.2758   10.5570    0.0000 C   0  0  0  0  0  0  0  0  0  0  0  0
    0.0361   12.0242    0.0000 C   0  0  0  0  0  0  0  0  0  0  0  0
   -1.0786   13.0279    0.0000 N   0  0  0  0  0  0  0  0  0  0  0  0
   -0.7668   14.4952    0.0000 C   0  0  0  0  0  0  0  0  0  0  0  0
    0.6598   14.9587    0.0000 C   0  0  0  0  0  0  0  0  0  0  0  0
    0.9717   16.4259    0.0000 S   0  0  0  0  0  0  0  0  0  0  0  0
    1.2835   17.8931    0.0000 C   0  0  0  0  0  0  0  0  0  0  0  0
   -0.4955   16.7378    0.0000 O   0  0  0  0  0  0  0  0  0  0  0  0
    2.4389   16.1140    0.0000 O   0  0  0  0  0  0  0  0  0  0  0  0
   -2.5052   12.5644    0.0000 C   0  0  0  0  0  0  0  0  0  0  0  0
   -2.8171   11.0972    0.0000 C   0  0  0  0  0  0  0  0  0  0  0  0
  1  2  1  0
  2  3  2  0
  3  4  1  0
  4  5  1  0
  5  6  1  0
  6  7  1  0
  7  8  2  0
  8  9  1  0
  9 10  1  0
 10 11  2  0
 11 12  1  0
 12 13  2  0
 13 14  1  0
 14 15  2  0
 15 16  1  0
 16 17  2  0
 16 18  2  0
 16 19  1  0
 19 20  1  0
 19 21  1  0
  8 22  1  0
 22 23  2  0
 23 24  1  0
 23 25  1  0
 25 26  1  0
 26 27  2  0
 27 28  1  0
  4 29  2  0
 29 30  1  0
 30 31  1  0
 31 32  1  0
 31 33  1  0
 29 34  1  0
 34 35  2  0
 35 36  1  0
 36 37  1  0
 37 38  1  0
 38 39  1  0
 39 40  1  0
 40 41  1  0
 41 42  1  0
 42 43  1  0
 42 44  2  0
 42 45  2  0
 39 46  1  0
 46 47  1  0
 35  2  1  0
 47 36  1  0
 28  6  2  0
 15 10  1  0
 27 22  1  0
M  END
>  <Compound_ID>  (30) 
CHEMBL3651861

>  <Molecule Name>  (30) 
nan

>  <Molecular Weight>  (30) 
683.9

>  <AlogP>  (30) 
5.65

>  <Smiles>  (30) 
Cc1cc(Nc2nc(Nc3ccccc3S(=O)(=O)C(C)C)c3c(C)[nH]nc3n2)c(OC(C)C)cc1C1CCN(CCS(C)(=O)=O)CC1

>  <Standard Type>  (30) 
IC50

>  <Standard Relation>  (30) 
'='

>  <Standard Units>  (30) 
nM

>  <Standard Value>  (30) 
23.0

>  <Assay ChEMBL ID>  (30) 
CHEMBL3705165

>  <Assay Description>  (30) 
Enzyme Assay: The inhibition of ALK tyrosine kinase activity may be demonstrated using known methods, for example using the recombinant kinase domain of the ALK in analogy to the VEGF-R kinase assay described in J. Wood et al. Cancer Res. 60, 2178-2189 (2000).

>  <BAO Format ID>  (30) 
BAO_0000357

>  <BAO Label>  (30) 
single protein format

>  <Assay Organism>  (30) 
Homo sapiens

>  <Target ChEMBL ID>  (30) 
CHEMBL4247

>  <Target Name>  (30) 
ALK tyrosine kinase receptor

>  <Target Organism>  (30) 
Homo sapiens

>  <Target Type>  (30) 
SINGLE PROTEIN

>  <Document ChEMBL ID>  (30) 
CHEMBL3638924

>  <Source Description>  (30) 
BindingDB Database

>  <Document Journal>  (30) 
nan

>  <Document Year>  (30) 
2013.0

>  <Active>  (30) 
1.0

>  <bits>  (30) 
<rdkit.DataStructs.cDataStructs.ExplicitBitVect object at 0x000002422C1B6570>

>  <Group>  (30) 
G2

$$$$

     RDKit          2D

 33 37  0  0  0  0  0  0  0  0999 V2000
   -6.8516   -6.6578    0.0000 C   0  0  0  0  0  0  0  0  0  0  0  0
   -5.6381   -7.5395    0.0000 C   0  0  0  0  0  0  0  0  0  0  0  0
   -4.2677   -6.9294    0.0000 C   0  0  0  0  0  0  0  0  0  0  0  0
   -4.1110   -5.4376    0.0000 C   0  0  0  0  0  0  0  0  0  0  0  0
   -2.7406   -4.8275    0.0000 C   0  0  0  0  0  0  0  0  0  0  0  0
   -1.5271   -5.7092    0.0000 C   0  0  0  0  0  0  0  0  0  0  0  0
   -1.6839   -7.2010    0.0000 C   0  0  0  0  0  0  0  0  0  0  0  0
   -3.0542   -7.8111    0.0000 C   0  0  0  0  0  0  0  0  0  0  0  0
   -3.2110   -9.3029    0.0000 C   0  0  0  0  0  0  0  0  0  0  0  0
   -2.0963  -10.3066    0.0000 C   0  0  0  0  0  0  0  0  0  0  0  0
   -2.7064  -11.6769    0.0000 N   0  0  0  0  0  0  0  0  0  0  0  0
   -4.1982  -11.5201    0.0000 N   0  0  0  0  0  0  0  0  0  0  0  0
   -5.2019  -12.6348    0.0000 C   0  0  0  0  0  0  0  0  0  0  0  0
   -6.6691  -12.3229    0.0000 C   0  0  0  0  0  0  0  0  0  0  0  0
   -7.6728  -13.4376    0.0000 N   0  0  0  0  0  0  0  0  0  0  0  0
   -7.1326  -10.8963    0.0000 O   0  0  0  0  0  0  0  0  0  0  0  0
   -4.5101  -10.0529    0.0000 C   0  0  0  0  0  0  0  0  0  0  0  0
   -0.1568   -5.0991    0.0000 C   0  0  0  0  0  0  0  0  0  0  0  0
    1.3396   -4.9944    0.0000 C   0  0  0  0  0  0  0  0  0  0  0  0
    0.2061   -6.5545    0.0000 C   0  0  0  0  0  0  0  0  0  0  0  0
   -0.0000   -3.6073    0.0000 C   0  0  0  0  0  0  0  0  0  0  0  0
    1.2135   -2.7256    0.0000 N   0  0  0  0  0  0  0  0  0  0  0  0
    0.7500   -1.2990    0.0000 C   0  0  0  0  0  0  0  0  0  0  0  0
    1.5000    0.0000    0.0000 C   0  0  0  0  0  0  0  0  0  0  0  0
    0.7500    1.2990    0.0000 C   0  0  0  0  0  0  0  0  0  0  0  0
    1.5000    2.5981    0.0000 C   0  0  0  0  0  0  0  0  0  0  0  0
    2.2500    3.8971    0.0000 N   0  0  0  0  0  0  0  0  0  0  0  0
   -0.7500    1.2990    0.0000 C   0  0  0  0  0  0  0  0  0  0  0  0
   -1.5000    0.0000    0.0000 C   0  0  0  0  0  0  0  0  0  0  0  0
   -0.7500   -1.2990    0.0000 C   0  0  0  0  0  0  0  0  0  0  0  0
   -1.2135   -2.7256    0.0000 C   0  0  0  0  0  0  0  0  0  0  0  0
   -2.5838   -3.3357    0.0000 C   0  0  0  0  0  0  0  0  0  0  0  0
   -3.7974   -2.4540    0.0000 O   0  0  0  0  0  0  0  0  0  0  0  0
  1  2  1  0
  2  3  1  0
  3  4  2  0
  4  5  1  0
  5  6  2  0
  6  7  1  0
  7  8  2  0
  8  9  1  0
  9 10  1  0
 10 11  2  0
 11 12  1  0
 12 13  1  0
 13 14  1  0
 14 15  1  0
 14 16  2  0
 12 17  1  0
  6 18  1  0
 18 19  1  0
 18 20  1  0
 18 21  1  0
 21 22  1  0
 22 23  1  0
 23 24  2  0
 24 25  1  0
 25 26  1  0
 26 27  3  0
 25 28  2  0
 28 29  1  0
 29 30  2  0
 30 31  1  0
 31 32  1  0
 32 33  2  0
  8  3  1  0
 17  9  2  0
 31 21  2  0
 32  5  1  0
 30 23  1  0
M  END
>  <Compound_ID>  (31) 
CHEMBL3735980

>  <Molecule Name>  (31) 
nan

>  <Molecular Weight>  (31) 
437.5

>  <AlogP>  (31) 
3.82

>  <Smiles>  (31) 
CCc1cc2c(cc1-c1cnn(CC(N)=O)c1)C(C)(C)c1[nH]c3cc(C#N)ccc3c1C2=O

>  <Standard Type>  (31) 
IC50

>  <Standard Relation>  (31) 
'='

>  <Standard Units>  (31) 
nM

>  <Standard Value>  (31) 
7.1

>  <Assay ChEMBL ID>  (31) 
CHEMBL3738493

>  <Assay Description>  (31) 
Inhibition of recombinant ALK (unknown origin) using poly (Glu, Tyr)4:1 substrate incubated for 60 mins by ELISA

>  <BAO Format ID>  (31) 
BAO_0000357

>  <BAO Label>  (31) 
single protein format

>  <Assay Organism>  (31) 
Homo sapiens

>  <Target ChEMBL ID>  (31) 
CHEMBL4247

>  <Target Name>  (31) 
ALK tyrosine kinase receptor

>  <Target Organism>  (31) 
Homo sapiens

>  <Target Type>  (31) 
SINGLE PROTEIN

>  <Document ChEMBL ID>  (31) 
CHEMBL3734710

>  <Source Description>  (31) 
Scientific Literature

>  <Document Journal>  (31) 
Eur J Med Chem

>  <Document Year>  (31) 
2015.0

>  <Active>  (31) 
1.0

>  <bits>  (31) 
<rdkit.DataStructs.cDataStructs.ExplicitBitVect object at 0x000002422C1B5460>

>  <Group>  (31) 
G2

$$$$

     RDKit          2D

 36 41  0  0  0  0  0  0  0  0999 V2000
   -6.8516   -6.6578    0.0000 C   0  0  0  0  0  0  0  0  0  0  0  0
   -5.6381   -7.5395    0.0000 C   0  0  0  0  0  0  0  0  0  0  0  0
   -4.2677   -6.9294    0.0000 C   0  0  0  0  0  0  0  0  0  0  0  0
   -4.1110   -5.4376    0.0000 C   0  0  0  0  0  0  0  0  0  0  0  0
   -2.7406   -4.8275    0.0000 C   0  0  0  0  0  0  0  0  0  0  0  0
   -1.5271   -5.7092    0.0000 C   0  0  0  0  0  0  0  0  0  0  0  0
   -1.6839   -7.2010    0.0000 C   0  0  0  0  0  0  0  0  0  0  0  0
   -3.0542   -7.8111    0.0000 C   0  0  0  0  0  0  0  0  0  0  0  0
   -3.2110   -9.3029    0.0000 N   0  0  0  0  0  0  0  0  0  0  0  0
   -4.5813   -9.9130    0.0000 C   0  0  0  0  0  0  0  0  0  0  0  0
   -4.7381  -11.4047    0.0000 C   0  0  0  0  0  0  0  0  0  0  0  0
   -3.5246  -12.2864    0.0000 C   0  0  0  0  0  0  0  0  0  0  0  0
   -3.6814  -13.7782    0.0000 N   0  0  0  0  0  0  0  0  0  0  0  0
   -5.0517  -14.3883    0.0000 C   0  0  0  0  0  0  0  0  0  0  0  0
   -5.2085  -15.8801    0.0000 C   0  0  0  0  0  0  0  0  0  0  0  0
   -3.9950  -16.7618    0.0000 O   0  0  0  0  0  0  0  0  0  0  0  0
   -2.6247  -16.1517    0.0000 C   0  0  0  0  0  0  0  0  0  0  0  0
   -2.4679  -14.6599    0.0000 C   0  0  0  0  0  0  0  0  0  0  0  0
   -2.1543  -11.6763    0.0000 C   0  0  0  0  0  0  0  0  0  0  0  0
   -1.9975  -10.1845    0.0000 C   0  0  0  0  0  0  0  0  0  0  0  0
   -0.1568   -5.0991    0.0000 C   0  0  0  0  0  0  0  0  0  0  0  0
    1.3396   -4.9944    0.0000 C   0  0  0  0  0  0  0  0  0  0  0  0
    0.2061   -6.5545    0.0000 C   0  0  0  0  0  0  0  0  0  0  0  0
   -0.0000   -3.6073    0.0000 C   0  0  0  0  0  0  0  0  0  0  0  0
    1.2135   -2.7256    0.0000 N   0  0  0  0  0  0  0  0  0  0  0  0
    0.7500   -1.2990    0.0000 C   0  0  0  0  0  0  0  0  0  0  0  0
    1.5000    0.0000    0.0000 C   0  0  0  0  0  0  0  0  0  0  0  0
    0.7500    1.2990    0.0000 C   0  0  0  0  0  0  0  0  0  0  0  0
    1.5000    2.5981    0.0000 C   0  0  0  0  0  0  0  0  0  0  0  0
    2.2500    3.8971    0.0000 N   0  0  0  0  0  0  0  0  0  0  0  0
   -0.7500    1.2990    0.0000 C   0  0  0  0  0  0  0  0  0  0  0  0
   -1.5000    0.0000    0.0000 C   0  0  0  0  0  0  0  0  0  0  0  0
   -0.7500   -1.2990    0.0000 C   0  0  0  0  0  0  0  0  0  0  0  0
   -1.2135   -2.7256    0.0000 C   0  0  0  0  0  0  0  0  0  0  0  0
   -2.5838   -3.3357    0.0000 C   0  0  0  0  0  0  0  0  0  0  0  0
   -3.7974   -2.4540    0.0000 O   0  0  0  0  0  0  0  0  0  0  0  0
  1  2  1  0
  2  3  1  0
  3  4  2  0
  4  5  1  0
  5  6  2  0
  6  7  1  0
  7  8  2  0
  8  9  1  0
  9 10  1  0
 10 11  1  0
 11 12  1  0
 12 13  1  0
 13 14  1  0
 14 15  1  0
 15 16  1  0
 16 17  1  0
 17 18  1  0
 12 19  1  0
 19 20  1  0
  6 21  1  0
 21 22  1  0
 21 23  1  0
 21 24  1  0
 24 25  1  0
 25 26  1  0
 26 27  2  0
 27 28  1  0
 28 29  1  0
 29 30  3  0
 28 31  2  0
 31 32  1  0
 32 33  2  0
 33 34  1  0
 34 35  1  0
 35 36  2  0
  8  3  1  0
 20  9  1  0
 34 24  2  0
 35  5  1  0
 18 13  1  0
 33 26  1  0
M  END
>  <Compound_ID>  (32) 
CHEMBL1738797

>  <Molecule Name>  (32) 
ALECTINIB

>  <Molecular Weight>  (32) 
482.63

>  <AlogP>  (32) 
4.77

>  <Smiles>  (32) 
CCc1cc2c(cc1N1CCC(N3CCOCC3)CC1)C(C)(C)c1[nH]c3cc(C#N)ccc3c1C2=O

>  <Standard Type>  (32) 
IC50

>  <Standard Relation>  (32) 
'='

>  <Standard Units>  (32) 
nM

>  <Standard Value>  (32) 
1.9

>  <Assay ChEMBL ID>  (32) 
CHEMBL1942591

>  <Assay Description>  (32) 
Inhibition of ALK using Bio-Gastrintide as substrate by TR-FRET assay in presence of 30 uM of ATP

>  <BAO Format ID>  (32) 
BAO_0000357

>  <BAO Label>  (32) 
single protein format

>  <Assay Organism>  (32) 
None

>  <Target ChEMBL ID>  (32) 
CHEMBL4247

>  <Target Name>  (32) 
ALK tyrosine kinase receptor

>  <Target Organism>  (32) 
Homo sapiens

>  <Target Type>  (32) 
SINGLE PROTEIN

>  <Document ChEMBL ID>  (32) 
CHEMBL1938232

>  <Source Description>  (32) 
Scientific Literature

>  <Document Journal>  (32) 
Bioorg Med Chem

>  <Document Year>  (32) 
2012.0

>  <Active>  (32) 
1.0

>  <bits>  (32) 
<rdkit.DataStructs.cDataStructs.ExplicitBitVect object at 0x000002422C1B5EE0>

>  <Group>  (32) 
G2

$$$$

     RDKit          2D

 42 48  0  0  0  0  0  0  0  0999 V2000
   -2.6168    4.5577    0.0000 C   0  0  0  0  0  0  0  0  0  0  0  0
   -1.6131    3.4430    0.0000 O   0  0  0  0  0  0  0  0  0  0  0  0
   -0.1459    3.7548    0.0000 C   0  0  0  0  0  0  0  0  0  0  0  0
    0.3177    5.1814    0.0000 C   0  0  0  0  0  0  0  0  0  0  0  0
    1.7849    5.4933    0.0000 C   0  0  0  0  0  0  0  0  0  0  0  0
    2.2484    6.9199    0.0000 N   0  0  0  0  0  0  0  0  0  0  0  0
    3.7156    7.2317    0.0000 C   0  0  0  0  0  0  0  0  0  0  0  0
    4.1791    8.6583    0.0000 C   0  0  0  0  0  0  0  0  0  0  0  0
    3.1755    9.7730    0.0000 C   0  0  0  0  0  0  0  0  0  0  0  0
    3.6390   11.1996    0.0000 N   0  0  0  0  0  0  0  0  0  0  0  0
    5.1062   11.5115    0.0000 C   0  0  0  0  0  0  0  0  0  0  0  0
    5.5697   12.9381    0.0000 C   0  0  0  0  0  0  0  0  0  0  0  0
    4.5660   14.0528    0.0000 N   0  0  0  0  0  0  0  0  0  0  0  0
    5.0296   15.4794    0.0000 C   0  0  0  0  0  0  0  0  0  0  0  0
    3.0988   13.7409    0.0000 C   0  0  0  0  0  0  0  0  0  0  0  0
    2.6353   12.3143    0.0000 C   0  0  0  0  0  0  0  0  0  0  0  0
    1.7082    9.4612    0.0000 C   0  0  0  0  0  0  0  0  0  0  0  0
    1.2447    8.0346    0.0000 C   0  0  0  0  0  0  0  0  0  0  0  0
    2.7886    4.3786    0.0000 C   0  0  0  0  0  0  0  0  0  0  0  0
    2.3250    2.9520    0.0000 C   0  0  0  0  0  0  0  0  0  0  0  0
    0.8578    2.6401    0.0000 C   0  0  0  0  0  0  0  0  0  0  0  0
    0.3943    1.2135    0.0000 C   0  0  0  0  0  0  0  0  0  0  0  0
    1.2760    0.0000    0.0000 N   0  0  0  0  0  0  0  0  0  0  0  0
    0.3943   -1.2135    0.0000 C   0  0  0  0  0  0  0  0  0  0  0  0
    0.7062   -2.6807    0.0000 C   0  0  0  0  0  0  0  0  0  0  0  0
    2.1328   -3.1443    0.0000 N   0  0  0  0  0  0  0  0  0  0  0  0
    2.4446   -4.6115    0.0000 C   0  0  0  0  0  0  0  0  0  0  0  0
    3.8149   -5.2216    0.0000 C   0  0  0  0  0  0  0  0  0  0  0  0
    5.1140   -4.4716    0.0000 C   0  0  0  0  0  0  0  0  0  0  0  0
    6.4130   -5.2216    0.0000 N   0  0  0  0  0  0  0  0  0  0  0  0
    5.1140   -2.9716    0.0000 O   0  0  0  0  0  0  0  0  0  0  0  0
    3.6581   -6.7134    0.0000 C   0  0  0  0  0  0  0  0  0  0  0  0
    2.6544   -7.8281    0.0000 C   0  0  0  0  0  0  0  0  0  0  0  0
    1.2841   -7.2180    0.0000 C   0  0  0  0  0  0  0  0  0  0  0  0
    1.4409   -5.7262    0.0000 C   0  0  0  0  0  0  0  0  0  0  0  0
    2.9081   -5.4143    0.0000 C   0  0  0  0  0  0  0  0  0  0  0  0
   -0.4086   -3.6844    0.0000 C   0  0  0  0  0  0  0  0  0  0  0  0
   -0.0967   -5.1517    0.0000 Cl  0  0  0  0  0  0  0  0  0  0  0  0
   -1.8351   -3.2209    0.0000 C   0  0  0  0  0  0  0  0  0  0  0  0
   -2.1470   -1.7537    0.0000 N   0  0  0  0  0  0  0  0  0  0  0  0
   -1.0323   -0.7500    0.0000 C   0  0  0  0  0  0  0  0  0  0  0  0
   -1.0323    0.7500    0.0000 N   0  0  0  0  0  0  0  0  0  0  0  0
  1  2  1  0
  2  3  1  0
  3  4  2  0
  4  5  1  0
  5  6  1  0
  6  7  1  0
  7  8  1  0
  8  9  1  0
  9 10  1  0
 10 11  1  0
 11 12  1  0
 12 13  1  0
 13 14  1  0
 13 15  1  0
 15 16  1  0
  9 17  1  0
 17 18  1  0
  5 19  2  0
 19 20  1  0
 20 21  2  0
 21 22  1  0
 22 23  2  0
 23 24  1  0
 24 25  2  0
 25 26  1  0
 27 26  1  1
 27 28  1  0
 28 29  1  1
 29 30  1  0
 29 31  2  0
 28 32  1  0
 32 33  1  6
 33 34  2  0
 35 34  1  6
 35 36  1  0
 25 37  1  0
 37 38  1  0
 37 39  2  0
 39 40  1  0
 40 41  2  0
 41 42  1  0
 21  3  1  0
 42 22  1  0
 18  6  1  0
 41 24  1  0
 16 10  1  0
 35 27  1  0
 36 32  1  0
M  END
>  <Compound_ID>  (33) 
CHEMBL3218857

>  <Molecule Name>  (33) 
nan

>  <Molecular Weight>  (33) 
591.16

>  <AlogP>  (33) 
3.59

>  <Smiles>  (33) 
COc1cc(N2CCC(N3CCN(C)CC3)CC2)ccc1-c1nc2c(N[C@H]3[C@@H](C(N)=O)[C@@H]4C=C[C@H]3C4)c(Cl)cnc2[nH]1

>  <Standard Type>  (33) 
IC50

>  <Standard Relation>  (33) 
'='

>  <Standard Units>  (33) 
nM

>  <Standard Value>  (33) 
0.76

>  <Assay ChEMBL ID>  (33) 
CHEMBL3226250

>  <Assay Description>  (33) 
Inhibition of ALK (unknown origin)

>  <BAO Format ID>  (33) 
BAO_0000357

>  <BAO Label>  (33) 
single protein format

>  <Assay Organism>  (33) 
Homo sapiens

>  <Target ChEMBL ID>  (33) 
CHEMBL4247

>  <Target Name>  (33) 
ALK tyrosine kinase receptor

>  <Target Organism>  (33) 
Homo sapiens

>  <Target Type>  (33) 
SINGLE PROTEIN

>  <Document ChEMBL ID>  (33) 
CHEMBL3217622

>  <Source Description>  (33) 
Scientific Literature

>  <Document Journal>  (33) 
Medchemcomm

>  <Document Year>  (33) 
2012.0

>  <Active>  (33) 
1.0

>  <bits>  (33) 
<rdkit.DataStructs.cDataStructs.ExplicitBitVect object at 0x000002422C1B5690>

>  <Group>  (33) 
G2

$$$$

     RDKit          2D

 32 36  0  0  0  0  0  0  0  0999 V2000
    3.0000   -7.7942    0.0000 C   0  0  0  0  0  0  0  0  0  0  0  0
    3.7500   -6.4952    0.0000 C   0  0  0  0  0  0  0  0  0  0  0  0
    5.2500   -6.4952    0.0000 C   0  0  0  0  0  0  0  0  0  0  0  0
    3.0000   -5.1962    0.0000 N   0  0  0  0  0  0  0  0  0  0  0  0
    1.5000   -5.1962    0.0000 C   0  0  0  0  0  0  0  0  0  0  0  0
    0.7500   -3.8971    0.0000 C   0  0  0  0  0  0  0  0  0  0  0  0
    1.5000   -2.5981    0.0000 N   0  0  0  0  0  0  0  0  0  0  0  0
    0.7500   -1.2990    0.0000 C   0  0  0  0  0  0  0  0  0  0  0  0
    1.5000    0.0000    0.0000 C   0  0  0  0  0  0  0  0  0  0  0  0
    0.7500    1.2990    0.0000 C   0  0  0  0  0  0  0  0  0  0  0  0
   -0.7500    1.2990    0.0000 C   0  0  0  0  0  0  0  0  0  0  0  0
   -1.5000    0.0000    0.0000 C   0  0  0  0  0  0  0  0  0  0  0  0
   -0.7500   -1.2990    0.0000 C   0  0  0  0  0  0  0  0  0  0  0  0
   -3.0000    0.0000    0.0000 C   0  0  0  0  0  0  0  0  0  0  0  0
   -4.4095   -0.5130    0.0000 C   0  0  0  0  0  0  0  0  0  0  0  0
   -2.7395   -1.4772    0.0000 C   0  0  0  0  0  0  0  0  0  0  0  0
   -3.7500    1.2990    0.0000 C   0  0  0  0  0  0  0  0  0  0  0  0
   -5.2172    1.6109    0.0000 N   0  0  0  0  0  0  0  0  0  0  0  0
   -5.3740    3.1027    0.0000 C   0  0  0  0  0  0  0  0  0  0  0  0
   -6.5875    3.9844    0.0000 C   0  0  0  0  0  0  0  0  0  0  0  0
   -7.9579    3.3743    0.0000 F   0  0  0  0  0  0  0  0  0  0  0  0
   -6.4307    5.4761    0.0000 C   0  0  0  0  0  0  0  0  0  0  0  0
   -7.6443    6.3578    0.0000 C   0  0  0  0  0  0  0  0  0  0  0  0
   -8.8578    7.2395    0.0000 N   0  0  0  0  0  0  0  0  0  0  0  0
   -5.0604    6.0863    0.0000 C   0  0  0  0  0  0  0  0  0  0  0  0
   -3.8469    5.2046    0.0000 C   0  0  0  0  0  0  0  0  0  0  0  0
   -4.0037    3.7128    0.0000 C   0  0  0  0  0  0  0  0  0  0  0  0
   -3.0000    2.5981    0.0000 C   0  0  0  0  0  0  0  0  0  0  0  0
   -1.5000    2.5981    0.0000 C   0  0  0  0  0  0  0  0  0  0  0  0
   -0.7500    3.8971    0.0000 O   0  0  0  0  0  0  0  0  0  0  0  0
    3.0000   -2.5981    0.0000 C   0  0  0  0  0  0  0  0  0  0  0  0
    3.7500   -3.8971    0.0000 C   0  0  0  0  0  0  0  0  0  0  0  0
  1  2  1  0
  2  3  1  0
  2  4  1  0
  4  5  1  0
  5  6  1  0
  6  7  1  0
  7  8  1  0
  8  9  2  0
  9 10  1  0
 10 11  2  0
 11 12  1  0
 12 13  2  0
 12 14  1  0
 14 15  1  0
 14 16  1  0
 14 17  1  0
 17 18  1  0
 18 19  1  0
 19 20  2  0
 20 21  1  0
 20 22  1  0
 22 23  1  0
 23 24  3  0
 22 25  2  0
 25 26  1  0
 26 27  2  0
 27 28  1  0
 28 29  1  0
 29 30  2  0
  7 31  1  0
 31 32  1  0
 32  4  1  0
 13  8  1  0
 28 17  2  0
 29 11  1  0
 27 19  1  0
M  END
>  <Compound_ID>  (34) 
CHEMBL3960260

>  <Molecule Name>  (34) 
nan

>  <Molecular Weight>  (34) 
430.53

>  <AlogP>  (34) 
4.58

>  <Smiles>  (34) 
CC(C)N1CCN(c2ccc3c(c2)C(C)(C)c2[nH]c4c(F)c(C#N)ccc4c2C3=O)CC1

>  <Standard Type>  (34) 
IC50

>  <Standard Relation>  (34) 
'='

>  <Standard Units>  (34) 
nM

>  <Standard Value>  (34) 
0.77

>  <Assay ChEMBL ID>  (34) 
CHEMBL3887074

>  <Assay Description>  (34) 
Inhibition Assay: ALK-inhibiting activity was measured by following an activity of inhibiting phosphorylation by biotinylated peptide (EGPWLEEEEEAYGWMDF). For the detection of phosphorylation of the biotinylated peptide, time-resolved fluorescence measurement was performed using an anti-phosphorylated tyrosine antibody labeled with europium cryptate and streptavidin conjugated to XL665, i.e., an allophycocyanin derivative.

>  <BAO Format ID>  (34) 
BAO_0000357

>  <BAO Label>  (34) 
single protein format

>  <Assay Organism>  (34) 
Homo sapiens

>  <Target ChEMBL ID>  (34) 
CHEMBL4247

>  <Target Name>  (34) 
ALK tyrosine kinase receptor

>  <Target Organism>  (34) 
Homo sapiens

>  <Target Type>  (34) 
SINGLE PROTEIN

>  <Document ChEMBL ID>  (34) 
CHEMBL3886150

>  <Source Description>  (34) 
BindingDB Database

>  <Document Journal>  (34) 
nan

>  <Document Year>  (34) 
2015.0

>  <Active>  (34) 
1.0

>  <bits>  (34) 
<rdkit.DataStructs.cDataStructs.ExplicitBitVect object at 0x000002422C1B5540>

>  <Group>  (34) 
G2

$$$$

     RDKit          2D

 38 41  0  0  0  0  0  0  0  0999 V2000
   -1.7110    5.9853    0.0000 C   0  0  0  0  0  0  0  0  0  0  0  0
   -0.2487    5.6515    0.0000 O   0  0  0  0  0  0  0  0  0  0  0  0
    0.1935    4.2182    0.0000 C   0  0  0  0  0  0  0  0  0  0  0  0
   -0.8268    3.1186    0.0000 C   0  0  0  0  0  0  0  0  0  0  0  0
   -0.3846    1.6852    0.0000 C   0  0  0  0  0  0  0  0  0  0  0  0
    1.0777    1.3515    0.0000 C   0  0  0  0  0  0  0  0  0  0  0  0
    2.0980    2.4510    0.0000 C   0  0  0  0  0  0  0  0  0  0  0  0
    1.6559    3.8844    0.0000 C   0  0  0  0  0  0  0  0  0  0  0  0
    2.6761    4.9840    0.0000 N   0  0  0  0  0  0  0  0  0  0  0  0
    4.1385    4.6502    0.0000 C   0  0  0  0  0  0  0  0  0  0  0  0
    4.5807    3.2168    0.0000 N   0  0  0  0  0  0  0  0  0  0  0  0
    6.0430    2.8830    0.0000 C   0  0  0  0  0  0  0  0  0  0  0  0
    7.0633    3.9826    0.0000 C   0  0  0  0  0  0  0  0  0  0  0  0
    8.5257    3.6488    0.0000 Cl  0  0  0  0  0  0  0  0  0  0  0  0
    6.6212    5.4160    0.0000 C   0  0  0  0  0  0  0  0  0  0  0  0
    7.6414    6.5156    0.0000 N   0  0  0  0  0  0  0  0  0  0  0  0
    7.1993    7.9489    0.0000 C   0  0  0  0  0  0  0  0  0  0  0  0
    8.2196    9.0485    0.0000 C   0  0  0  0  0  0  0  0  0  0  0  0
    7.7774   10.4819    0.0000 C   0  0  0  0  0  0  0  0  0  0  0  0
    6.3150   10.8156    0.0000 C   0  0  0  0  0  0  0  0  0  0  0  0
    5.8729   12.2490    0.0000 C   0  0  0  0  0  0  0  0  0  0  0  0
    5.4308   13.6824    0.0000 N   0  0  0  0  0  0  0  0  0  0  0  0
    5.2948    9.7161    0.0000 C   0  0  0  0  0  0  0  0  0  0  0  0
    5.7369    8.2827    0.0000 C   0  0  0  0  0  0  0  0  0  0  0  0
    4.7167    7.1831    0.0000 O   0  0  0  0  0  0  0  0  0  0  0  0
    3.2543    7.5169    0.0000 C   0  0  0  0  0  0  0  0  0  0  0  0
    5.1588    5.7498    0.0000 N   0  0  0  0  0  0  0  0  0  0  0  0
    1.7286    0.0000    0.0000 C   0  0  0  0  0  0  0  0  0  0  0  0
    1.0777   -1.3515    0.0000 C   0  0  0  0  0  0  0  0  0  0  0  0
   -0.3846   -1.6852    0.0000 N   0  0  0  0  0  0  0  0  0  0  0  0
   -0.7184   -3.1476    0.0000 C   0  0  0  0  0  0  0  0  0  0  0  0
   -2.1518   -3.5898    0.0000 C   0  0  0  0  0  0  0  0  0  0  0  0
   -3.2514   -2.5695    0.0000 O   0  0  0  0  0  0  0  0  0  0  0  0
   -2.4856   -5.0522    0.0000 N   0  0  0  0  0  0  0  0  0  0  0  0
   -3.9189   -5.4943    0.0000 C   0  0  0  0  0  0  0  0  0  0  0  0
   -1.3860   -6.0724    0.0000 C   0  0  0  0  0  0  0  0  0  0  0  0
   -1.5574   -0.7500    0.0000 C   0  0  0  0  0  0  0  0  0  0  0  0
   -1.5574    0.7500    0.0000 C   0  0  0  0  0  0  0  0  0  0  0  0
  1  2  1  0
  2  3  1  0
  3  4  2  0
  4  5  1  0
  5  6  2  0
  6  7  1  0
  7  8  2  0
  8  9  1  0
  9 10  1  0
 10 11  2  0
 11 12  1  0
 12 13  2  0
 13 14  1  0
 13 15  1  0
 15 16  1  0
 16 17  1  0
 17 18  2  0
 18 19  1  0
 19 20  2  0
 20 21  1  0
 21 22  3  0
 20 23  1  0
 23 24  2  0
 24 25  1  0
 25 26  1  0
 15 27  2  0
  6 28  1  0
 28 29  1  0
 29 30  1  0
 30 31  1  0
 31 32  1  0
 32 33  2  0
 32 34  1  0
 34 35  1  0
 34 36  1  0
 30 37  1  0
 37 38  1  0
  8  3  1  0
 27 10  1  0
 38  5  1  0
 24 17  1  0
M  END
>  <Compound_ID>  (35) 
CHEMBL1642264

>  <Molecule Name>  (35) 
nan

>  <Molecular Weight>  (35) 
536.04

>  <AlogP>  (35) 
3.99

>  <Smiles>  (35) 
COc1cc2c(cc1Nc1ncc(Cl)c(Nc3ccc(C#N)cc3OC)n1)CCN(CC(=O)N(C)C)CC2

>  <Standard Type>  (35) 
IC50

>  <Standard Relation>  (35) 
'='

>  <Standard Units>  (35) 
nM

>  <Standard Value>  (35) 
7.0

>  <Assay ChEMBL ID>  (35) 
CHEMBL1648480

>  <Assay Description>  (35) 
Inhibition of ALK

>  <BAO Format ID>  (35) 
BAO_0000357

>  <BAO Label>  (35) 
single protein format

>  <Assay Organism>  (35) 
None

>  <Target ChEMBL ID>  (35) 
CHEMBL4247

>  <Target Name>  (35) 
ALK tyrosine kinase receptor

>  <Target Organism>  (35) 
Homo sapiens

>  <Target Type>  (35) 
SINGLE PROTEIN

>  <Document ChEMBL ID>  (35) 
CHEMBL1641404

>  <Source Description>  (35) 
Scientific Literature

>  <Document Journal>  (35) 
Bioorg Med Chem Lett

>  <Document Year>  (35) 
2011.0

>  <Active>  (35) 
1.0

>  <bits>  (35) 
<rdkit.DataStructs.cDataStructs.ExplicitBitVect object at 0x000002422C1B5230>

>  <Group>  (35) 
G2

$$$$

     RDKit          2D

 33 36  0  0  0  0  0  0  0  0999 V2000
    3.9786   -1.2990    0.0000 C   0  0  0  0  0  0  0  0  0  0  0  0
    3.2286   -0.0000    0.0000 C   0  0  0  0  0  0  0  0  0  0  0  0
    1.7286    0.0000    0.0000 N   0  0  0  0  0  0  0  0  0  0  0  0
    1.0777    1.3515    0.0000 C   0  0  0  0  0  0  0  0  0  0  0  0
   -0.3846    1.6852    0.0000 C   0  0  0  0  0  0  0  0  0  0  0  0
   -1.5574    0.7500    0.0000 C   0  0  0  0  0  0  0  0  0  0  0  0
   -2.8564    1.5000    0.0000 C   0  0  0  0  0  0  0  0  0  0  0  0
   -4.1555    0.7500    0.0000 C   0  0  0  0  0  0  0  0  0  0  0  0
   -4.1555   -0.7500    0.0000 C   0  0  0  0  0  0  0  0  0  0  0  0
   -5.4545   -1.5000    0.0000 N   0  0  0  0  0  0  0  0  0  0  0  0
   -6.7535   -0.7500    0.0000 C   0  0  0  0  0  0  0  0  0  0  0  0
   -6.7535    0.7500    0.0000 N   0  0  0  0  0  0  0  0  0  0  0  0
   -8.0526    1.5000    0.0000 C   0  0  0  0  0  0  0  0  0  0  0  0
   -9.3516    0.7500    0.0000 C   0  0  0  0  0  0  0  0  0  0  0  0
  -10.6507    1.5000    0.0000 Cl  0  0  0  0  0  0  0  0  0  0  0  0
   -9.3516   -0.7500    0.0000 C   0  0  0  0  0  0  0  0  0  0  0  0
  -10.6507   -1.5000    0.0000 N   0  0  0  0  0  0  0  0  0  0  0  0
  -10.6507   -3.0000    0.0000 C   0  0  0  0  0  0  0  0  0  0  0  0
  -11.9497   -3.7500    0.0000 C   0  0  0  0  0  0  0  0  0  0  0  0
  -11.9497   -5.2500    0.0000 C   0  0  0  0  0  0  0  0  0  0  0  0
  -10.6507   -6.0000    0.0000 C   0  0  0  0  0  0  0  0  0  0  0  0
   -9.3516   -5.2500    0.0000 C   0  0  0  0  0  0  0  0  0  0  0  0
   -9.3516   -3.7500    0.0000 C   0  0  0  0  0  0  0  0  0  0  0  0
   -8.0526   -3.0000    0.0000 N   0  0  0  0  0  0  0  0  0  0  0  0
   -6.7535   -3.7500    0.0000 S   0  0  0  0  0  0  0  0  0  0  0  0
   -5.4545   -4.5000    0.0000 C   0  0  0  0  0  0  0  0  0  0  0  0
   -7.5035   -5.0490    0.0000 O   0  0  0  0  0  0  0  0  0  0  0  0
   -6.0035   -2.4510    0.0000 O   0  0  0  0  0  0  0  0  0  0  0  0
   -8.0526   -1.5000    0.0000 N   0  0  0  0  0  0  0  0  0  0  0  0
   -2.8564   -1.5000    0.0000 C   0  0  0  0  0  0  0  0  0  0  0  0
   -1.5574   -0.7500    0.0000 C   0  0  0  0  0  0  0  0  0  0  0  0
   -0.3846   -1.6852    0.0000 C   0  0  0  0  0  0  0  0  0  0  0  0
    1.0777   -1.3515    0.0000 C   0  0  0  0  0  0  0  0  0  0  0  0
  1  2  1  0
  2  3  1  0
  3  4  1  0
  4  5  1  0
  5  6  1  0
  6  7  2  0
  7  8  1  0
  8  9  2  0
  9 10  1  0
 10 11  1  0
 11 12  2  0
 12 13  1  0
 13 14  2  0
 14 15  1  0
 14 16  1  0
 16 17  1  0
 18 17  1  1
 18 19  1  0
 19 20  1  0
 20 21  1  0
 21 22  1  0
 22 23  1  0
 23 24  1  6
 24 25  1  0
 25 26  1  0
 25 27  2  0
 25 28  2  0
 16 29  2  0
  9 30  1  0
 30 31  2  0
 31 32  1  0
 32 33  1  0
 33  3  1  0
 31  6  1  0
 29 11  1  0
 23 18  1  0
M  END
>  <Compound_ID>  (36) 
CHEMBL1796244

>  <Molecule Name>  (36) 
nan

>  <Molecular Weight>  (36) 
493.08

>  <AlogP>  (36) 
3.57

>  <Smiles>  (36) 
CCN1CCc2ccc(Nc3ncc(Cl)c(N[C@@H]4CCCC[C@H]4NS(C)(=O)=O)n3)cc2CC1

>  <Standard Type>  (36) 
IC50

>  <Standard Relation>  (36) 
'='

>  <Standard Units>  (36) 
nM

>  <Standard Value>  (36) 
9.0

>  <Assay ChEMBL ID>  (36) 
CHEMBL1798383

>  <Assay Description>  (36) 
Inhibition of ALK

>  <BAO Format ID>  (36) 
BAO_0000357

>  <BAO Label>  (36) 
single protein format

>  <Assay Organism>  (36) 
None

>  <Target ChEMBL ID>  (36) 
CHEMBL4247

>  <Target Name>  (36) 
ALK tyrosine kinase receptor

>  <Target Organism>  (36) 
Homo sapiens

>  <Target Type>  (36) 
SINGLE PROTEIN

>  <Document ChEMBL ID>  (36) 
CHEMBL1795227

>  <Source Description>  (36) 
Scientific Literature

>  <Document Journal>  (36) 
Bioorg Med Chem Lett

>  <Document Year>  (36) 
2011.0

>  <Active>  (36) 
1.0

>  <bits>  (36) 
<rdkit.DataStructs.cDataStructs.ExplicitBitVect object at 0x000002422C1B4740>

>  <Group>  (36) 
G2

$$$$

     RDKit          2D

 39 42  0  0  0  0  0  0  0  0999 V2000
   -1.8812   15.3513    0.0000 C   0  0  0  0  0  0  0  0  0  0  0  0
   -0.4188   15.0175    0.0000 C   0  0  0  0  0  0  0  0  0  0  0  0
    0.0233   13.5841    0.0000 N   0  0  0  0  0  0  0  0  0  0  0  0
    1.4857   13.2503    0.0000 C   0  0  0  0  0  0  0  0  0  0  0  0
    2.5060   14.3499    0.0000 C   0  0  0  0  0  0  0  0  0  0  0  0
    3.9684   14.0161    0.0000 C   0  0  0  0  0  0  0  0  0  0  0  0
    4.4105   12.5828    0.0000 C   0  0  0  0  0  0  0  0  0  0  0  0
    3.3903   11.4832    0.0000 C   0  0  0  0  0  0  0  0  0  0  0  0
    1.9279   11.8170    0.0000 C   0  0  0  0  0  0  0  0  0  0  0  0
    0.9076   10.7174    0.0000 N   0  0  0  0  0  0  0  0  0  0  0  0
    1.3497    9.2840    0.0000 C   0  0  0  0  0  0  0  0  0  0  0  0
    0.3295    8.1845    0.0000 N   0  0  0  0  0  0  0  0  0  0  0  0
    0.7716    6.7511    0.0000 C   0  0  0  0  0  0  0  0  0  0  0  0
   -0.2487    5.6515    0.0000 N   0  0  0  0  0  0  0  0  0  0  0  0
    0.1935    4.2182    0.0000 C   0  0  0  0  0  0  0  0  0  0  0  0
   -0.8268    3.1186    0.0000 C   0  0  0  0  0  0  0  0  0  0  0  0
   -0.3846    1.6852    0.0000 C   0  0  0  0  0  0  0  0  0  0  0  0
    1.0777    1.3515    0.0000 C   0  0  0  0  0  0  0  0  0  0  0  0
    2.0980    2.4510    0.0000 C   0  0  0  0  0  0  0  0  0  0  0  0
    1.6559    3.8844    0.0000 C   0  0  0  0  0  0  0  0  0  0  0  0
    2.6761    4.9840    0.0000 O   0  0  0  0  0  0  0  0  0  0  0  0
    4.1385    4.6502    0.0000 C   0  0  0  0  0  0  0  0  0  0  0  0
    1.7286    0.0000    0.0000 C   0  0  0  0  0  0  0  0  0  0  0  0
    1.0777   -1.3515    0.0000 C   0  0  0  0  0  0  0  0  0  0  0  0
   -0.3846   -1.6852    0.0000 N   0  0  0  0  0  0  0  0  0  0  0  0
   -0.7184   -3.1476    0.0000 C   0  0  0  0  0  0  0  0  0  0  0  0
   -2.1518   -3.5898    0.0000 C   0  0  0  0  0  0  0  0  0  0  0  0
   -2.4856   -5.0522    0.0000 O   0  0  0  0  0  0  0  0  0  0  0  0
   -3.9189   -5.4943    0.0000 C   0  0  0  0  0  0  0  0  0  0  0  0
   -1.5574   -0.7500    0.0000 C   0  0  0  0  0  0  0  0  0  0  0  0
   -1.5574    0.7500    0.0000 C   0  0  0  0  0  0  0  0  0  0  0  0
    2.2340    6.4173    0.0000 N   0  0  0  0  0  0  0  0  0  0  0  0
    3.2543    7.5169    0.0000 C   0  0  0  0  0  0  0  0  0  0  0  0
    2.8121    8.9503    0.0000 C   0  0  0  0  0  0  0  0  0  0  0  0
    3.8324   10.0498    0.0000 Cl  0  0  0  0  0  0  0  0  0  0  0  0
   -0.9969   12.4845    0.0000 S   0  0  0  0  0  0  0  0  0  0  0  0
   -2.0172   11.3850    0.0000 C   0  0  0  0  0  0  0  0  0  0  0  0
    0.1027   11.4643    0.0000 O   0  0  0  0  0  0  0  0  0  0  0  0
   -2.0965   13.5048    0.0000 O   0  0  0  0  0  0  0  0  0  0  0  0
  1  2  1  0
  2  3  1  0
  4  3  1  6
  4  5  1  0
  5  6  1  0
  6  7  1  0
  7  8  1  0
  8  9  1  0
  9 10  1  1
 10 11  1  0
 11 12  2  0
 12 13  1  0
 13 14  1  0
 14 15  1  0
 15 16  2  0
 16 17  1  0
 17 18  2  0
 18 19  1  0
 19 20  2  0
 20 21  1  0
 21 22  1  0
 18 23  1  0
 23 24  1  0
 24 25  1  0
 25 26  1  0
 26 27  1  0
 27 28  1  0
 28 29  1  0
 25 30  1  0
 30 31  1  0
 13 32  2  0
 32 33  1  0
 33 34  2  0
 34 35  1  0
  3 36  1  0
 36 37  1  0
 36 38  2  0
 36 39  2  0
  9  4  1  0
 34 11  1  0
 20 15  1  0
 31 17  1  0
M  END
>  <Compound_ID>  (37) 
CHEMBL1796258

>  <Molecule Name>  (37) 
nan

>  <Molecular Weight>  (37) 
581.18

>  <AlogP>  (37) 
3.93

>  <Smiles>  (37) 
CCN([C@@H]1CCCC[C@H]1Nc1nc(Nc2cc3c(cc2OC)CCN(CCOC)CC3)ncc1Cl)S(C)(=O)=O

>  <Standard Type>  (37) 
IC50

>  <Standard Relation>  (37) 
'='

>  <Standard Units>  (37) 
nM

>  <Standard Value>  (37) 
20.0

>  <Assay ChEMBL ID>  (37) 
CHEMBL1798383

>  <Assay Description>  (37) 
Inhibition of ALK

>  <BAO Format ID>  (37) 
BAO_0000357

>  <BAO Label>  (37) 
single protein format

>  <Assay Organism>  (37) 
None

>  <Target ChEMBL ID>  (37) 
CHEMBL4247

>  <Target Name>  (37) 
ALK tyrosine kinase receptor

>  <Target Organism>  (37) 
Homo sapiens

>  <Target Type>  (37) 
SINGLE PROTEIN

>  <Document ChEMBL ID>  (37) 
CHEMBL1795227

>  <Source Description>  (37) 
Scientific Literature

>  <Document Journal>  (37) 
Bioorg Med Chem Lett

>  <Document Year>  (37) 
2011.0

>  <Active>  (37) 
1.0

>  <bits>  (37) 
<rdkit.DataStructs.cDataStructs.ExplicitBitVect object at 0x000002422C1B7840>

>  <Group>  (37) 
G2

$$$$

     RDKit          2D

 35 38  0  0  0  0  0  0  0  0999 V2000
   -1.7110    5.9853    0.0000 C   0  0  0  0  0  0  0  0  0  0  0  0
   -0.2487    5.6515    0.0000 O   0  0  0  0  0  0  0  0  0  0  0  0
    0.1935    4.2182    0.0000 C   0  0  0  0  0  0  0  0  0  0  0  0
   -0.8268    3.1186    0.0000 C   0  0  0  0  0  0  0  0  0  0  0  0
   -0.3846    1.6852    0.0000 C   0  0  0  0  0  0  0  0  0  0  0  0
    1.0777    1.3515    0.0000 C   0  0  0  0  0  0  0  0  0  0  0  0
    2.0980    2.4510    0.0000 C   0  0  0  0  0  0  0  0  0  0  0  0
    1.6559    3.8844    0.0000 C   0  0  0  0  0  0  0  0  0  0  0  0
    2.6761    4.9840    0.0000 N   0  0  0  0  0  0  0  0  0  0  0  0
    4.1385    4.6502    0.0000 C   0  0  0  0  0  0  0  0  0  0  0  0
    4.5807    3.2168    0.0000 N   0  0  0  0  0  0  0  0  0  0  0  0
    6.0430    2.8830    0.0000 C   0  0  0  0  0  0  0  0  0  0  0  0
    7.0633    3.9826    0.0000 C   0  0  0  0  0  0  0  0  0  0  0  0
    8.5257    3.6488    0.0000 Cl  0  0  0  0  0  0  0  0  0  0  0  0
    6.6212    5.4160    0.0000 C   0  0  0  0  0  0  0  0  0  0  0  0
    7.6414    6.5156    0.0000 N   0  0  0  0  0  0  0  0  0  0  0  0
    7.1993    7.9489    0.0000 C   0  0  0  0  0  0  0  0  0  0  0  0
    5.7369    8.2827    0.0000 C   0  0  0  0  0  0  0  0  0  0  0  0
    5.2948    9.7161    0.0000 C   0  0  0  0  0  0  0  0  0  0  0  0
    6.3150   10.8156    0.0000 C   0  0  0  0  0  0  0  0  0  0  0  0
    7.7774   10.4819    0.0000 C   0  0  0  0  0  0  0  0  0  0  0  0
    8.2196    9.0485    0.0000 C   0  0  0  0  0  0  0  0  0  0  0  0
    9.6820    8.7147    0.0000 S   0  0  0  0  0  0  0  0  0  0  0  0
   10.0157   10.1771    0.0000 O   0  0  0  0  0  0  0  0  0  0  0  0
    9.3482    7.2523    0.0000 O   0  0  0  0  0  0  0  0  0  0  0  0
   11.1443    8.3809    0.0000 C   0  0  0  0  0  0  0  0  0  0  0  0
   11.5865    6.9476    0.0000 C   0  0  0  0  0  0  0  0  0  0  0  0
   12.1646    9.4805    0.0000 C   0  0  0  0  0  0  0  0  0  0  0  0
    5.1588    5.7498    0.0000 N   0  0  0  0  0  0  0  0  0  0  0  0
    1.7286    0.0000    0.0000 C   0  0  0  0  0  0  0  0  0  0  0  0
    3.2286   -0.0000    0.0000 O   0  0  0  0  0  0  0  0  0  0  0  0
    1.0777   -1.3515    0.0000 N   0  0  0  0  0  0  0  0  0  0  0  0
   -0.3846   -1.6852    0.0000 C   0  0  0  0  0  0  0  0  0  0  0  0
   -1.5574   -0.7500    0.0000 C   0  0  0  0  0  0  0  0  0  0  0  0
   -1.5574    0.7500    0.0000 C   0  0  0  0  0  0  0  0  0  0  0  0
  1  2  1  0
  2  3  1  0
  3  4  2  0
  4  5  1  0
  5  6  2  0
  6  7  1  0
  7  8  2  0
  8  9  1  0
  9 10  1  0
 10 11  2  0
 11 12  1  0
 12 13  2  0
 13 14  1  0
 13 15  1  0
 15 16  1  0
 16 17  1  0
 17 18  2  0
 18 19  1  0
 19 20  2  0
 20 21  1  0
 21 22  2  0
 22 23  1  0
 23 24  2  0
 23 25  2  0
 23 26  1  0
 26 27  1  0
 26 28  1  0
 15 29  2  0
  6 30  1  0
 30 31  2  0
 30 32  1  0
 32 33  1  0
 33 34  1  0
 34 35  1  0
  8  3  1  0
 29 10  1  0
 35  5  1  0
 22 17  1  0
M  END
>  <Compound_ID>  (38) 
CHEMBL3608520

>  <Molecule Name>  (38) 
nan

>  <Molecular Weight>  (38) 
516.02

>  <AlogP>  (38) 
4.48

>  <Smiles>  (38) 
COc1cc2c(cc1Nc1ncc(Cl)c(Nc3ccccc3S(=O)(=O)C(C)C)n1)C(=O)NCCC2

>  <Standard Type>  (38) 
IC50

>  <Standard Relation>  (38) 
'='

>  <Standard Units>  (38) 
nM

>  <Standard Value>  (38) 
12.0

>  <Assay ChEMBL ID>  (38) 
CHEMBL3610967

>  <Assay Description>  (38) 
Inhibition of ALK L1196M mutant (unknown origin) by homogeneous time resolved fluorescence assay

>  <BAO Format ID>  (38) 
BAO_0000357

>  <BAO Label>  (38) 
single protein format

>  <Assay Organism>  (38) 
Homo sapiens

>  <Target ChEMBL ID>  (38) 
CHEMBL4247

>  <Target Name>  (38) 
ALK tyrosine kinase receptor

>  <Target Organism>  (38) 
Homo sapiens

>  <Target Type>  (38) 
SINGLE PROTEIN

>  <Document ChEMBL ID>  (38) 
CHEMBL3608257

>  <Source Description>  (38) 
Scientific Literature

>  <Document Journal>  (38) 
Bioorg Med Chem Lett

>  <Document Year>  (38) 
2015.0

>  <Active>  (38) 
1.0

>  <bits>  (38) 
<rdkit.DataStructs.cDataStructs.ExplicitBitVect object at 0x000002422C1B7920>

>  <Group>  (38) 
G2

$$$$

     RDKit          2D

 33 36  0  0  0  0  0  0  0  0999 V2000
    5.2500   -1.2990    0.0000 C   0  0  0  0  0  0  0  0  0  0  0  0
    3.7500   -1.2990    0.0000 N   0  0  0  0  0  0  0  0  0  0  0  0
    3.0000    0.0000    0.0000 C   0  0  0  0  0  0  0  0  0  0  0  0
    3.7500    1.2990    0.0000 O   0  0  0  0  0  0  0  0  0  0  0  0
    1.5000    0.0000    0.0000 C   0  0  0  0  0  0  0  0  0  0  0  0
    0.7500   -1.2990    0.0000 C   0  0  0  0  0  0  0  0  0  0  0  0
   -0.7500   -1.2990    0.0000 C   0  0  0  0  0  0  0  0  0  0  0  0
   -1.5000    0.0000    0.0000 C   0  0  0  0  0  0  0  0  0  0  0  0
   -0.7500    1.2990    0.0000 C   0  0  0  0  0  0  0  0  0  0  0  0
    0.7500    1.2990    0.0000 C   0  0  0  0  0  0  0  0  0  0  0  0
    1.5000    2.5981    0.0000 N   0  0  0  0  0  0  0  0  0  0  0  0
    0.7500    3.8971    0.0000 C   0  0  0  0  0  0  0  0  0  0  0  0
    1.5000    5.1962    0.0000 N   0  0  0  0  0  0  0  0  0  0  0  0
    0.7500    6.4952    0.0000 C   0  0  0  0  0  0  0  0  0  0  0  0
    1.5000    7.7942    0.0000 N   0  0  0  0  0  0  0  0  0  0  0  0
    3.0000    7.7942    0.0000 C   0  0  0  0  0  0  0  0  0  0  0  0
    3.7500    6.4952    0.0000 C   0  0  0  0  0  0  0  0  0  0  0  0
    5.2500    6.4952    0.0000 C   0  0  0  0  0  0  0  0  0  0  0  0
    6.0000    7.7942    0.0000 C   0  0  0  0  0  0  0  0  0  0  0  0
    7.5000    7.7942    0.0000 N   0  0  0  0  0  0  0  0  0  0  0  0
    8.2500    6.4952    0.0000 C   0  0  0  0  0  0  0  0  0  0  0  0
    9.7500    6.4952    0.0000 C   0  0  0  0  0  0  0  0  0  0  0  0
   10.5000    7.7942    0.0000 O   0  0  0  0  0  0  0  0  0  0  0  0
    9.7500    9.0933    0.0000 C   0  0  0  0  0  0  0  0  0  0  0  0
    8.2500    9.0933    0.0000 C   0  0  0  0  0  0  0  0  0  0  0  0
    5.2500    9.0933    0.0000 C   0  0  0  0  0  0  0  0  0  0  0  0
    3.7500    9.0933    0.0000 C   0  0  0  0  0  0  0  0  0  0  0  0
    3.0000   10.3923    0.0000 O   0  0  0  0  0  0  0  0  0  0  0  0
    3.7500   11.6913    0.0000 C   0  0  0  0  0  0  0  0  0  0  0  0
   -0.7500    6.4952    0.0000 N   0  0  0  0  0  0  0  0  0  0  0  0
   -1.5000    5.1962    0.0000 C   0  0  0  0  0  0  0  0  0  0  0  0
   -0.7500    3.8971    0.0000 C   0  0  0  0  0  0  0  0  0  0  0  0
   -1.5000    2.5981    0.0000 Cl  0  0  0  0  0  0  0  0  0  0  0  0
  1  2  1  0
  2  3  1  0
  3  4  2  0
  3  5  1  0
  5  6  2  0
  6  7  1  0
  7  8  2  0
  8  9  1  0
  9 10  2  0
 10 11  1  0
 11 12  1  0
 12 13  2  0
 13 14  1  0
 14 15  1  0
 15 16  1  0
 16 17  2  0
 17 18  1  0
 18 19  2  0
 19 20  1  0
 20 21  1  0
 21 22  1  0
 22 23  1  0
 23 24  1  0
 24 25  1  0
 19 26  1  0
 26 27  2  0
 27 28  1  0
 28 29  1  0
 14 30  2  0
 30 31  1  0
 31 32  2  0
 32 33  1  0
 10  5  1  0
 32 12  1  0
 27 16  1  0
 25 20  1  0
M  END
>  <Compound_ID>  (39) 
CHEMBL458997

>  <Molecule Name>  (39) 
nan

>  <Molecular Weight>  (39) 
468.95

>  <AlogP>  (39) 
3.82

>  <Smiles>  (39) 
CNC(=O)c1ccccc1Nc1nc(Nc2ccc(N3CCOCC3)cc2OC)ncc1Cl

>  <Standard Type>  (39) 
IC50

>  <Standard Relation>  (39) 
'='

>  <Standard Units>  (39) 
nM

>  <Standard Value>  (39) 
5.0

>  <Assay ChEMBL ID>  (39) 
CHEMBL1648480

>  <Assay Description>  (39) 
Inhibition of ALK

>  <BAO Format ID>  (39) 
BAO_0000357

>  <BAO Label>  (39) 
single protein format

>  <Assay Organism>  (39) 
None

>  <Target ChEMBL ID>  (39) 
CHEMBL4247

>  <Target Name>  (39) 
ALK tyrosine kinase receptor

>  <Target Organism>  (39) 
Homo sapiens

>  <Target Type>  (39) 
SINGLE PROTEIN

>  <Document ChEMBL ID>  (39) 
CHEMBL1641404

>  <Source Description>  (39) 
Scientific Literature

>  <Document Journal>  (39) 
Bioorg Med Chem Lett

>  <Document Year>  (39) 
2011.0

>  <Active>  (39) 
1.0

>  <bits>  (39) 
<rdkit.DataStructs.cDataStructs.ExplicitBitVect object at 0x000002422C1B6180>

>  <Group>  (39) 
G2

$$$$

     RDKit          2D

 39 43  0  0  0  0  0  0  0  0999 V2000
    3.9786   -1.2990    0.0000 C   0  0  0  0  0  0  0  0  0  0  0  0
    3.2286   -0.0000    0.0000 C   0  0  0  0  0  0  0  0  0  0  0  0
    1.7286    0.0000    0.0000 N   0  0  0  0  0  0  0  0  0  0  0  0
    1.0777    1.3515    0.0000 C   0  0  0  0  0  0  0  0  0  0  0  0
    2.0130    2.5242    0.0000 O   0  0  0  0  0  0  0  0  0  0  0  0
   -0.3846    1.6852    0.0000 C   0  0  0  0  0  0  0  0  0  0  0  0
   -1.5574    0.7500    0.0000 C   0  0  0  0  0  0  0  0  0  0  0  0
   -1.5574   -0.7500    0.0000 C   0  0  0  0  0  0  0  0  0  0  0  0
   -0.3846   -1.6852    0.0000 C   0  0  0  0  0  0  0  0  0  0  0  0
    1.0777   -1.3515    0.0000 C   0  0  0  0  0  0  0  0  0  0  0  0
    2.0980   -2.4510    0.0000 C   0  0  0  0  0  0  0  0  0  0  0  0
    1.6559   -3.8844    0.0000 C   0  0  0  0  0  0  0  0  0  0  0  0
    0.1935   -4.2182    0.0000 C   0  0  0  0  0  0  0  0  0  0  0  0
   -0.2487   -5.6515    0.0000 N   0  0  0  0  0  0  0  0  0  0  0  0
   -1.7110   -5.9853    0.0000 C   0  0  0  0  0  0  0  0  0  0  0  0
   -2.7313   -4.8857    0.0000 N   0  0  0  0  0  0  0  0  0  0  0  0
   -4.1937   -5.2195    0.0000 C   0  0  0  0  0  0  0  0  0  0  0  0
   -4.6358   -6.6529    0.0000 C   0  0  0  0  0  0  0  0  0  0  0  0
   -6.0982   -6.9867    0.0000 Cl  0  0  0  0  0  0  0  0  0  0  0  0
   -3.6156   -7.7525    0.0000 C   0  0  0  0  0  0  0  0  0  0  0  0
   -4.0577   -9.1858    0.0000 N   0  0  0  0  0  0  0  0  0  0  0  0
   -3.0374  -10.2854    0.0000 C   0  0  0  0  0  0  0  0  0  0  0  0
   -3.4796  -11.7187    0.0000 C   0  0  0  0  0  0  0  0  0  0  0  0
   -2.4593  -12.8183    0.0000 C   0  0  0  0  0  0  0  0  0  0  0  0
   -0.9969  -12.4845    0.0000 C   0  0  0  0  0  0  0  0  0  0  0  0
    0.0233  -13.5841    0.0000 N   0  0  0  0  0  0  0  0  0  0  0  0
   -0.4188  -15.0175    0.0000 C   0  0  0  0  0  0  0  0  0  0  0  0
    0.6015  -16.1171    0.0000 C   0  0  0  0  0  0  0  0  0  0  0  0
    2.0639  -15.7833    0.0000 O   0  0  0  0  0  0  0  0  0  0  0  0
    2.5060  -14.3499    0.0000 C   0  0  0  0  0  0  0  0  0  0  0  0
    1.4857  -13.2503    0.0000 C   0  0  0  0  0  0  0  0  0  0  0  0
   -0.5548  -11.0512    0.0000 C   0  0  0  0  0  0  0  0  0  0  0  0
   -1.5750   -9.9516    0.0000 C   0  0  0  0  0  0  0  0  0  0  0  0
   -1.1329   -8.5182    0.0000 O   0  0  0  0  0  0  0  0  0  0  0  0
    0.3295   -8.1845    0.0000 C   0  0  0  0  0  0  0  0  0  0  0  0
   -2.1532   -7.4187    0.0000 N   0  0  0  0  0  0  0  0  0  0  0  0
   -0.8268   -3.1186    0.0000 C   0  0  0  0  0  0  0  0  0  0  0  0
   -2.2892   -3.4524    0.0000 O   0  0  0  0  0  0  0  0  0  0  0  0
   -3.3094   -2.3528    0.0000 C   0  0  0  0  0  0  0  0  0  0  0  0
  1  2  1  0
  2  3  1  0
  3  4  1  0
  4  5  2  0
  4  6  1  0
  6  7  1  0
  7  8  1  0
  8  9  1  0
  9 10  2  0
 10 11  1  0
 11 12  2  0
 12 13  1  0
 13 14  1  0
 14 15  1  0
 15 16  2  0
 16 17  1  0
 17 18  2  0
 18 19  1  0
 18 20  1  0
 20 21  1  0
 21 22  1  0
 22 23  2  0
 23 24  1  0
 24 25  2  0
 25 26  1  0
 26 27  1  0
 27 28  1  0
 28 29  1  0
 29 30  1  0
 30 31  1  0
 25 32  1  0
 32 33  2  0
 33 34  1  0
 34 35  1  0
 20 36  2  0
 13 37  2  0
 37 38  1  0
 38 39  1  0
 10  3  1  0
 36 15  1  0
 37  9  1  0
 33 22  1  0
 31 26  1  0
M  END
>  <Compound_ID>  (40) 
CHEMBL1642254

>  <Molecule Name>  (40) 
nan

>  <Molecular Weight>  (40) 
553.06

>  <AlogP>  (40) 
5.16

>  <Smiles>  (40) 
CCN1C(=O)CCCc2c1ccc(Nc1ncc(Cl)c(Nc3ccc(N4CCOCC4)cc3OC)n1)c2OC

>  <Standard Type>  (40) 
IC50

>  <Standard Relation>  (40) 
'='

>  <Standard Units>  (40) 
nM

>  <Standard Value>  (40) 
34.0

>  <Assay ChEMBL ID>  (40) 
CHEMBL1648480

>  <Assay Description>  (40) 
Inhibition of ALK

>  <BAO Format ID>  (40) 
BAO_0000357

>  <BAO Label>  (40) 
single protein format

>  <Assay Organism>  (40) 
None

>  <Target ChEMBL ID>  (40) 
CHEMBL4247

>  <Target Name>  (40) 
ALK tyrosine kinase receptor

>  <Target Organism>  (40) 
Homo sapiens

>  <Target Type>  (40) 
SINGLE PROTEIN

>  <Document ChEMBL ID>  (40) 
CHEMBL1641404

>  <Source Description>  (40) 
Scientific Literature

>  <Document Journal>  (40) 
Bioorg Med Chem Lett

>  <Document Year>  (40) 
2011.0

>  <Active>  (40) 
1.0

>  <bits>  (40) 
<rdkit.DataStructs.cDataStructs.ExplicitBitVect object at 0x000002422C1B5770>

>  <Group>  (40) 
G2

$$$$

     RDKit          2D

 33 37  0  0  0  0  0  0  0  0999 V2000
   -2.1491   -7.1273    0.0000 C   0  0  0  0  0  0  0  0  0  0  0  0
   -1.8373   -5.6601    0.0000 O   0  0  0  0  0  0  0  0  0  0  0  0
   -2.9520   -4.6564    0.0000 C   0  0  0  0  0  0  0  0  0  0  0  0
   -4.3786   -5.1199    0.0000 C   0  0  0  0  0  0  0  0  0  0  0  0
   -5.4933   -4.1162    0.0000 C   0  0  0  0  0  0  0  0  0  0  0  0
   -6.9199   -4.5797    0.0000 N   0  0  0  0  0  0  0  0  0  0  0  0
   -8.0346   -3.5760    0.0000 C   0  0  0  0  0  0  0  0  0  0  0  0
   -9.4612   -4.0396    0.0000 C   0  0  0  0  0  0  0  0  0  0  0  0
   -9.7730   -5.5068    0.0000 N   0  0  0  0  0  0  0  0  0  0  0  0
  -11.1996   -5.9703    0.0000 C   0  0  0  0  0  0  0  0  0  0  0  0
  -12.3143   -4.9666    0.0000 C   0  0  0  0  0  0  0  0  0  0  0  0
  -11.5115   -7.4375    0.0000 C   0  0  0  0  0  0  0  0  0  0  0  0
   -8.6583   -6.5105    0.0000 C   0  0  0  0  0  0  0  0  0  0  0  0
   -7.2317   -6.0469    0.0000 C   0  0  0  0  0  0  0  0  0  0  0  0
   -5.1814   -2.6490    0.0000 C   0  0  0  0  0  0  0  0  0  0  0  0
   -3.7548   -2.1855    0.0000 C   0  0  0  0  0  0  0  0  0  0  0  0
   -2.6401   -3.1891    0.0000 C   0  0  0  0  0  0  0  0  0  0  0  0
   -1.2135   -2.7256    0.0000 C   0  0  0  0  0  0  0  0  0  0  0  0
   -0.0000   -3.6073    0.0000 N   0  0  0  0  0  0  0  0  0  0  0  0
    1.2135   -2.7256    0.0000 N   0  0  0  0  0  0  0  0  0  0  0  0
    0.7500   -1.2990    0.0000 C   0  0  0  0  0  0  0  0  0  0  0  0
    1.5000    0.0000    0.0000 N   0  0  0  0  0  0  0  0  0  0  0  0
    0.7500    1.2990    0.0000 C   0  0  0  0  0  0  0  0  0  0  0  0
    1.5000    2.5981    0.0000 C   0  0  0  0  0  0  0  0  0  0  0  0
    3.0000    2.5981    0.0000 C   0  0  0  0  0  0  0  0  0  0  0  0
    3.7500    3.8971    0.0000 C   0  0  0  0  0  0  0  0  0  0  0  0
    3.0000    5.1962    0.0000 C   0  0  0  0  0  0  0  0  0  0  0  0
    3.7500    6.4952    0.0000 O   0  0  0  0  0  0  0  0  0  0  0  0
    1.5000    5.1962    0.0000 C   0  0  0  0  0  0  0  0  0  0  0  0
    0.7500    3.8971    0.0000 C   0  0  0  0  0  0  0  0  0  0  0  0
   -0.7500    1.2990    0.0000 C   0  0  0  0  0  0  0  0  0  0  0  0
   -1.5000    0.0000    0.0000 C   0  0  0  0  0  0  0  0  0  0  0  0
   -0.7500   -1.2990    0.0000 C   0  0  0  0  0  0  0  0  0  0  0  0
  1  2  1  0
  2  3  1  0
  3  4  2  0
  4  5  1  0
  5  6  1  0
  6  7  1  0
  7  8  1  0
  8  9  1  0
  9 10  1  0
 10 11  1  0
 10 12  1  0
  9 13  1  0
 13 14  1  0
  5 15  2  0
 15 16  1  0
 16 17  2  0
 17 18  1  0
 18 19  2  0
 19 20  1  0
 20 21  1  0
 21 22  2  0
 22 23  1  0
 23 24  1  0
 24 25  2  0
 25 26  1  0
 26 27  2  0
 27 28  1  0
 27 29  1  0
 29 30  2  0
 23 31  2  0
 31 32  1  0
 32 33  2  0
 17  3  1  0
 33 18  1  0
 14  6  1  0
 33 21  1  0
 30 24  1  0
M  END
>  <Compound_ID>  (41) 
CHEMBL4584172

>  <Molecule Name>  (41) 
nan

>  <Molecular Weight>  (41) 
443.55

>  <AlogP>  (41) 
4.54

>  <Smiles>  (41) 
COc1cc(N2CCN(C(C)C)CC2)ccc1-c1n[nH]c2nc(-c3ccc(O)cc3)ccc12

>  <Standard Type>  (41) 
IC50

>  <Standard Relation>  (41) 
'='

>  <Standard Units>  (41) 
nM

>  <Standard Value>  (41) 
27.05

>  <Assay ChEMBL ID>  (41) 
CHEMBL4370936

>  <Assay Description>  (41) 
Inhibition of recombinant ALK (unknown origin) using peptide substrate measured after 1 hr by LanthaScreen assay

>  <BAO Format ID>  (41) 
BAO_0000357

>  <BAO Label>  (41) 
single protein format

>  <Assay Organism>  (41) 
Homo sapiens

>  <Target ChEMBL ID>  (41) 
CHEMBL4247

>  <Target Name>  (41) 
ALK tyrosine kinase receptor

>  <Target Organism>  (41) 
Homo sapiens

>  <Target Type>  (41) 
SINGLE PROTEIN

>  <Document ChEMBL ID>  (41) 
CHEMBL4368941

>  <Source Description>  (41) 
Scientific Literature

>  <Document Journal>  (41) 
Bioorg Med Chem Lett

>  <Document Year>  (41) 
2019.0

>  <Active>  (41) 
1.0

>  <bits>  (41) 
<rdkit.DataStructs.cDataStructs.ExplicitBitVect object at 0x000002422C1B4A50>

>  <Group>  (41) 
G2

$$$$

     RDKit          2D

 36 39  0  0  0  0  0  0  0  0999 V2000
    6.0000   -2.5981    0.0000 C   0  0  0  0  0  0  0  0  0  0  0  0
    5.2500   -1.2990    0.0000 O   0  0  0  0  0  0  0  0  0  0  0  0
    3.7500   -1.2990    0.0000 C   0  0  0  0  0  0  0  0  0  0  0  0
    3.0000    0.0000    0.0000 C   0  0  0  0  0  0  0  0  0  0  0  0
    1.5000    0.0000    0.0000 C   0  0  0  0  0  0  0  0  0  0  0  0
    0.7500   -1.2990    0.0000 C   0  0  0  0  0  0  0  0  0  0  0  0
   -0.7500   -1.2990    0.0000 C   0  0  0  0  0  0  0  0  0  0  0  0
   -1.5000   -2.5981    0.0000 O   0  0  0  0  0  0  0  0  0  0  0  0
   -0.7500   -3.8971    0.0000 C   0  0  0  0  0  0  0  0  0  0  0  0
    0.5490   -4.6471    0.0000 C   0  0  0  0  0  0  0  0  0  0  0  0
   -0.7500   -5.3971    0.0000 C   0  0  0  0  0  0  0  0  0  0  0  0
   -1.5000    0.0000    0.0000 C   0  0  0  0  0  0  0  0  0  0  0  0
   -3.0000    0.0000    0.0000 N   0  0  0  0  0  0  0  0  0  0  0  0
   -3.7500    1.2990    0.0000 C   0  0  0  0  0  0  0  0  0  0  0  0
   -3.0000    2.5981    0.0000 N   0  0  0  0  0  0  0  0  0  0  0  0
   -3.7500    3.8971    0.0000 C   0  0  0  0  0  0  0  0  0  0  0  0
   -5.2500    3.8971    0.0000 C   0  0  0  0  0  0  0  0  0  0  0  0
   -6.0000    5.1962    0.0000 Cl  0  0  0  0  0  0  0  0  0  0  0  0
   -6.0000    2.5981    0.0000 C   0  0  0  0  0  0  0  0  0  0  0  0
   -7.5000    2.5981    0.0000 N   0  0  0  0  0  0  0  0  0  0  0  0
   -8.2500    1.2990    0.0000 C   0  0  0  0  0  0  0  0  0  0  0  0
   -7.6399   -0.0713    0.0000 C   0  0  0  0  0  0  0  0  0  0  0  0
   -8.7546   -1.0750    0.0000 N   0  0  0  0  0  0  0  0  0  0  0  0
   -8.5978   -2.5668    0.0000 C   0  0  0  0  0  0  0  0  0  0  0  0
  -10.0537   -0.3250    0.0000 N   0  0  0  0  0  0  0  0  0  0  0  0
   -9.7418    1.1422    0.0000 C   0  0  0  0  0  0  0  0  0  0  0  0
  -10.7455    2.2570    0.0000 S   0  0  0  0  0  0  0  0  0  0  0  0
   -9.6308    3.2607    0.0000 O   0  0  0  0  0  0  0  0  0  0  0  0
  -11.8602    1.2533    0.0000 O   0  0  0  0  0  0  0  0  0  0  0  0
  -11.7492    3.3717    0.0000 C   0  0  0  0  0  0  0  0  0  0  0  0
  -11.2856    4.7983    0.0000 C   0  0  0  0  0  0  0  0  0  0  0  0
  -13.2164    3.0598    0.0000 C   0  0  0  0  0  0  0  0  0  0  0  0
   -5.2500    1.2990    0.0000 N   0  0  0  0  0  0  0  0  0  0  0  0
   -0.7500    1.2990    0.0000 C   0  0  0  0  0  0  0  0  0  0  0  0
    0.7500    1.2990    0.0000 C   0  0  0  0  0  0  0  0  0  0  0  0
    1.5000    2.5981    0.0000 C   0  0  0  0  0  0  0  0  0  0  0  0
  1  2  1  0
  2  3  1  0
  3  4  1  0
  4  5  1  0
  5  6  2  0
  6  7  1  0
  7  8  1  0
  8  9  1  0
  9 10  1  0
 10 11  1  0
  7 12  2  0
 12 13  1  0
 13 14  1  0
 14 15  2  0
 15 16  1  0
 16 17  2  0
 17 18  1  0
 17 19  1  0
 19 20  1  0
 20 21  1  0
 21 22  2  0
 22 23  1  0
 23 24  1  0
 23 25  1  0
 25 26  2  0
 26 27  1  0
 27 28  2  0
 27 29  2  0
 27 30  1  0
 30 31  1  0
 30 32  1  0
 19 33  2  0
 12 34  1  0
 34 35  2  0
 35 36  1  0
 35  5  1  0
 11  9  1  0
 33 14  1  0
 26 21  1  0
M  END
>  <Compound_ID>  (42) 
CHEMBL3604650

>  <Molecule Name>  (42) 
nan

>  <Molecular Weight>  (42) 
535.07

>  <AlogP>  (42) 
4.57

>  <Smiles>  (42) 
COCCc1cc(OC2CC2)c(Nc2ncc(Cl)c(Nc3cn(C)nc3S(=O)(=O)C(C)C)n2)cc1C

>  <Standard Type>  (42) 
IC50

>  <Standard Relation>  (42) 
'='

>  <Standard Units>  (42) 
nM

>  <Standard Value>  (42) 
4.0

>  <Assay ChEMBL ID>  (42) 
CHEMBL3607640

>  <Assay Description>  (42) 
Inhibition of wild type human recombinant ALK using TK substrate-biotin incubated for 30 mins by HTRF assay

>  <BAO Format ID>  (42) 
BAO_0000357

>  <BAO Label>  (42) 
single protein format

>  <Assay Organism>  (42) 
Homo sapiens

>  <Target ChEMBL ID>  (42) 
CHEMBL4247

>  <Target Name>  (42) 
ALK tyrosine kinase receptor

>  <Target Organism>  (42) 
Homo sapiens

>  <Target Type>  (42) 
SINGLE PROTEIN

>  <Document ChEMBL ID>  (42) 
CHEMBL3603807

>  <Source Description>  (42) 
Scientific Literature

>  <Document Journal>  (42) 
Bioorg Med Chem Lett

>  <Document Year>  (42) 
2015.0

>  <Active>  (42) 
1.0

>  <bits>  (42) 
<rdkit.DataStructs.cDataStructs.ExplicitBitVect object at 0x000002422C1B47B0>

>  <Group>  (42) 
G2

$$$$

     RDKit          2D

 37 41  0  0  0  0  0  0  0  0999 V2000
    3.7500   -6.4952    0.0000 C   0  0  0  0  0  0  0  0  0  0  0  0
    3.0000   -5.1962    0.0000 O   0  0  0  0  0  0  0  0  0  0  0  0
    1.5000   -5.1962    0.0000 C   0  0  0  0  0  0  0  0  0  0  0  0
    0.7500   -6.4952    0.0000 C   0  0  0  0  0  0  0  0  0  0  0  0
   -0.7500   -6.4952    0.0000 C   0  0  0  0  0  0  0  0  0  0  0  0
   -1.5000   -7.7942    0.0000 N   0  0  0  0  0  0  0  0  0  0  0  0
   -3.0000   -7.7942    0.0000 C   0  0  0  0  0  0  0  0  0  0  0  0
   -3.7500   -9.0933    0.0000 C   0  0  0  0  0  0  0  0  0  0  0  0
   -3.0000  -10.3923    0.0000 N   0  0  0  0  0  0  0  0  0  0  0  0
   -3.7500  -11.6913    0.0000 C   0  0  0  0  0  0  0  0  0  0  0  0
   -1.5000  -10.3923    0.0000 C   0  0  0  0  0  0  0  0  0  0  0  0
   -0.7500   -9.0933    0.0000 C   0  0  0  0  0  0  0  0  0  0  0  0
   -1.5000   -5.1962    0.0000 C   0  0  0  0  0  0  0  0  0  0  0  0
   -0.7500   -3.8971    0.0000 C   0  0  0  0  0  0  0  0  0  0  0  0
    0.7500   -3.8971    0.0000 C   0  0  0  0  0  0  0  0  0  0  0  0
    1.5000   -2.5981    0.0000 N   0  0  0  0  0  0  0  0  0  0  0  0
    0.7500   -1.2990    0.0000 C   0  0  0  0  0  0  0  0  0  0  0  0
    1.5000    0.0000    0.0000 N   0  0  0  0  0  0  0  0  0  0  0  0
    0.7500    1.2990    0.0000 C   0  0  0  0  0  0  0  0  0  0  0  0
   -0.7500    1.2990    0.0000 C   0  0  0  0  0  0  0  0  0  0  0  0
   -1.7537    2.4138    0.0000 C   0  0  0  0  0  0  0  0  0  0  0  0
   -3.1240    1.8037    0.0000 C   0  0  0  0  0  0  0  0  0  0  0  0
   -2.9672    0.3119    0.0000 C   0  0  0  0  0  0  0  0  0  0  0  0
   -4.0819   -0.6918    0.0000 C   0  0  0  0  0  0  0  0  0  0  0  0
   -3.7701   -2.1590    0.0000 C   0  0  0  0  0  0  0  0  0  0  0  0
   -4.8848   -3.1627    0.0000 C   0  0  0  0  0  0  0  0  0  0  0  0
   -6.3114   -2.6992    0.0000 C   0  0  0  0  0  0  0  0  0  0  0  0
   -6.6232   -1.2320    0.0000 C   0  0  0  0  0  0  0  0  0  0  0  0
   -5.5085   -0.2283    0.0000 C   0  0  0  0  0  0  0  0  0  0  0  0
   -5.8204    1.2389    0.0000 N   0  0  0  0  0  0  0  0  0  0  0  0
   -7.2470    1.7024    0.0000 C   0  0  0  0  0  0  0  0  0  0  0  0
   -4.7057    2.2426    0.0000 S   0  0  0  0  0  0  0  0  0  0  0  0
   -3.5910    3.2463    0.0000 C   0  0  0  0  0  0  0  0  0  0  0  0
   -3.7020    1.1279    0.0000 O   0  0  0  0  0  0  0  0  0  0  0  0
   -5.7094    3.3573    0.0000 O   0  0  0  0  0  0  0  0  0  0  0  0
   -1.5000    0.0000    0.0000 N   0  0  0  0  0  0  0  0  0  0  0  0
   -0.7500   -1.2990    0.0000 N   0  0  0  0  0  0  0  0  0  0  0  0
  1  2  1  0
  2  3  1  0
  3  4  2  0
  4  5  1  0
  5  6  1  0
  6  7  1  0
  7  8  1  0
  8  9  1  0
  9 10  1  0
  9 11  1  0
 11 12  1  0
  5 13  2  0
 13 14  1  0
 14 15  2  0
 15 16  1  0
 16 17  1  0
 17 18  1  0
 18 19  2  0
 19 20  1  0
 20 21  2  0
 21 22  1  0
 22 23  2  0
 23 24  1  0
 24 25  2  0
 25 26  1  0
 26 27  2  0
 27 28  1  0
 28 29  2  0
 29 30  1  0
 30 31  1  0
 30 32  1  0
 32 33  1  0
 32 34  2  0
 32 35  2  0
 23 36  1  0
 36 37  1  0
 15  3  1  0
 37 17  2  0
 12  6  1  0
 36 20  1  0
 29 24  1  0
M  END
>  <Compound_ID>  (43) 
CHEMBL1822524

>  <Molecule Name>  (43) 
nan

>  <Molecular Weight>  (43) 
521.65

>  <AlogP>  (43) 
3.30

>  <Smiles>  (43) 
COc1cc(N2CCN(C)CC2)ccc1Nc1ncc2ccc(-c3ccccc3N(C)S(C)(=O)=O)n2n1

>  <Standard Type>  (43) 
IC50

>  <Standard Relation>  (43) 
'='

>  <Standard Units>  (43) 
nM

>  <Standard Value>  (43) 
9.0

>  <Assay ChEMBL ID>  (43) 
CHEMBL1825977

>  <Assay Description>  (43) 
Inhibition of human recombinant ALK assessed as phosphorylated product using PLC-gamma/GST substrate by modified ELISA method

>  <BAO Format ID>  (43) 
BAO_0000357

>  <BAO Label>  (43) 
single protein format

>  <Assay Organism>  (43) 
Homo sapiens

>  <Target ChEMBL ID>  (43) 
CHEMBL4247

>  <Target Name>  (43) 
ALK tyrosine kinase receptor

>  <Target Organism>  (43) 
Homo sapiens

>  <Target Type>  (43) 
SINGLE PROTEIN

>  <Document ChEMBL ID>  (43) 
CHEMBL1821719

>  <Source Description>  (43) 
Scientific Literature

>  <Document Journal>  (43) 
J Med Chem

>  <Document Year>  (43) 
2011.0

>  <Active>  (43) 
1.0

>  <bits>  (43) 
<rdkit.DataStructs.cDataStructs.ExplicitBitVect object at 0x000002422C1B4190>

>  <Group>  (43) 
G2

$$$$

     RDKit          2D

 33 35  0  0  0  0  0  0  0  0999 V2000
    3.7500   -1.2990    0.0000 C   0  0  0  0  0  0  0  0  0  0  0  0
    3.0000    0.0000    0.0000 O   0  0  0  0  0  0  0  0  0  0  0  0
    1.5000    0.0000    0.0000 C   0  0  0  0  0  0  0  0  0  0  0  0
    0.7500   -1.2990    0.0000 C   0  0  0  0  0  0  0  0  0  0  0  0
   -0.7500   -1.2990    0.0000 C   0  0  0  0  0  0  0  0  0  0  0  0
   -1.5000   -2.5981    0.0000 P   0  0  0  0  0  0  0  0  0  0  0  0
   -0.2010   -3.3481    0.0000 C   0  0  0  0  0  0  0  0  0  0  0  0
   -2.7990   -1.8481    0.0000 C   0  0  0  0  0  0  0  0  0  0  0  0
   -2.2500   -3.8971    0.0000 O   0  0  0  0  0  0  0  0  0  0  0  0
   -1.5000    0.0000    0.0000 C   0  0  0  0  0  0  0  0  0  0  0  0
   -0.7500    1.2990    0.0000 C   0  0  0  0  0  0  0  0  0  0  0  0
    0.7500    1.2990    0.0000 C   0  0  0  0  0  0  0  0  0  0  0  0
    1.5000    2.5981    0.0000 N   0  0  0  0  0  0  0  0  0  0  0  0
    3.0000    2.5981    0.0000 C   0  0  0  0  0  0  0  0  0  0  0  0
    3.7500    1.2990    0.0000 N   0  0  0  0  0  0  0  0  0  0  0  0
    5.2500    1.2990    0.0000 C   0  0  0  0  0  0  0  0  0  0  0  0
    6.0000    2.5981    0.0000 C   0  0  0  0  0  0  0  0  0  0  0  0
    7.5000    2.5981    0.0000 Cl  0  0  0  0  0  0  0  0  0  0  0  0
    5.2500    3.8971    0.0000 C   0  0  0  0  0  0  0  0  0  0  0  0
    6.0000    5.1962    0.0000 N   0  0  0  0  0  0  0  0  0  0  0  0
    5.2500    6.4952    0.0000 C   0  0  0  0  0  0  0  0  0  0  0  0
    3.7500    6.4952    0.0000 C   0  0  0  0  0  0  0  0  0  0  0  0
    3.0000    7.7942    0.0000 C   0  0  0  0  0  0  0  0  0  0  0  0
    3.7500    9.0933    0.0000 C   0  0  0  0  0  0  0  0  0  0  0  0
    5.2500    9.0933    0.0000 C   0  0  0  0  0  0  0  0  0  0  0  0
    6.0000    7.7942    0.0000 C   0  0  0  0  0  0  0  0  0  0  0  0
    7.5000    7.7942    0.0000 S   0  0  0  0  0  0  0  0  0  0  0  0
    7.5000    6.2942    0.0000 O   0  0  0  0  0  0  0  0  0  0  0  0
    7.5000    9.2942    0.0000 O   0  0  0  0  0  0  0  0  0  0  0  0
    9.0000    7.7942    0.0000 C   0  0  0  0  0  0  0  0  0  0  0  0
    9.7500    9.0933    0.0000 C   0  0  0  0  0  0  0  0  0  0  0  0
    9.7500    6.4952    0.0000 C   0  0  0  0  0  0  0  0  0  0  0  0
    3.7500    3.8971    0.0000 N   0  0  0  0  0  0  0  0  0  0  0  0
  1  2  1  0
  2  3  1  0
  3  4  2  0
  4  5  1  0
  5  6  1  0
  6  7  1  0
  6  8  1  0
  6  9  2  0
  5 10  2  0
 10 11  1  0
 11 12  2  0
 12 13  1  0
 13 14  1  0
 14 15  2  0
 15 16  1  0
 16 17  2  0
 17 18  1  0
 17 19  1  0
 19 20  1  0
 20 21  1  0
 21 22  2  0
 22 23  1  0
 23 24  2  0
 24 25  1  0
 25 26  2  0
 26 27  1  0
 27 28  2  0
 27 29  2  0
 27 30  1  0
 30 31  1  0
 30 32  1  0
 19 33  2  0
 12  3  1  0
 33 14  1  0
 26 21  1  0
M  END
>  <Compound_ID>  (44) 
CHEMBL3824304

>  <Molecule Name>  (44) 
nan

>  <Molecular Weight>  (44) 
508.97

>  <AlogP>  (44) 
5.06

>  <Smiles>  (44) 
COc1cc(P(C)(C)=O)ccc1Nc1ncc(Cl)c(Nc2ccccc2S(=O)(=O)C(C)C)n1

>  <Standard Type>  (44) 
IC50

>  <Standard Relation>  (44) 
'='

>  <Standard Units>  (44) 
nM

>  <Standard Value>  (44) 
0.31

>  <Assay ChEMBL ID>  (44) 
CHEMBL3824709

>  <Assay Description>  (44) 
Inhibition of human ALK using poly[Glu:Tyr] (4:1) as substrate and [gamma-33P]ATP measured after 1 hr

>  <BAO Format ID>  (44) 
BAO_0000357

>  <BAO Label>  (44) 
single protein format

>  <Assay Organism>  (44) 
Homo sapiens

>  <Target ChEMBL ID>  (44) 
CHEMBL4247

>  <Target Name>  (44) 
ALK tyrosine kinase receptor

>  <Target Organism>  (44) 
Homo sapiens

>  <Target Type>  (44) 
SINGLE PROTEIN

>  <Document ChEMBL ID>  (44) 
CHEMBL3822358

>  <Source Description>  (44) 
Scientific Literature

>  <Document Journal>  (44) 
J Med Chem

>  <Document Year>  (44) 
2016.0

>  <Active>  (44) 
1.0

>  <bits>  (44) 
<rdkit.DataStructs.cDataStructs.ExplicitBitVect object at 0x000002422C1B7C30>

>  <Group>  (44) 
G2

$$$$

     RDKit          2D

 37 40  0  0  0  0  0  0  0  0999 V2000
    3.0000    0.0000    0.0000 C   0  0  0  0  0  0  0  0  0  0  0  0
    1.5000    0.0000    0.0000 C   0  0  0  0  0  0  0  0  0  0  0  0
    0.7500   -1.2990    0.0000 C   0  0  0  0  0  0  0  0  0  0  0  0
   -0.7500   -1.2990    0.0000 C   0  0  0  0  0  0  0  0  0  0  0  0
   -1.5000   -2.5981    0.0000 N   0  0  0  0  0  0  0  0  0  0  0  0
   -3.0000   -2.5981    0.0000 C   0  0  0  0  0  0  0  0  0  0  0  0
   -3.7500   -1.2990    0.0000 N   0  0  0  0  0  0  0  0  0  0  0  0
   -5.2500   -1.2990    0.0000 C   0  0  0  0  0  0  0  0  0  0  0  0
   -6.0000   -2.5981    0.0000 C   0  0  0  0  0  0  0  0  0  0  0  0
   -7.5000   -2.5981    0.0000 Cl  0  0  0  0  0  0  0  0  0  0  0  0
   -5.2500   -3.8971    0.0000 C   0  0  0  0  0  0  0  0  0  0  0  0
   -6.0000   -5.1962    0.0000 N   0  0  0  0  0  0  0  0  0  0  0  0
   -5.2500   -6.4952    0.0000 C   0  0  0  0  0  0  0  0  0  0  0  0
   -3.7582   -6.6520    0.0000 C   0  0  0  0  0  0  0  0  0  0  0  0
   -3.4463   -8.1192    0.0000 N   0  0  0  0  0  0  0  0  0  0  0  0
   -2.0760   -8.7293    0.0000 C   0  0  0  0  0  0  0  0  0  0  0  0
   -4.7454   -8.8692    0.0000 N   0  0  0  0  0  0  0  0  0  0  0  0
   -5.8601   -7.8655    0.0000 C   0  0  0  0  0  0  0  0  0  0  0  0
   -7.3273   -8.1774    0.0000 S   0  0  0  0  0  0  0  0  0  0  0  0
   -7.6392   -6.7102    0.0000 O   0  0  0  0  0  0  0  0  0  0  0  0
   -7.0155   -9.6446    0.0000 O   0  0  0  0  0  0  0  0  0  0  0  0
   -8.7945   -8.4892    0.0000 C   0  0  0  0  0  0  0  0  0  0  0  0
   -9.7982   -7.3745    0.0000 C   0  0  0  0  0  0  0  0  0  0  0  0
   -9.2581   -9.9158    0.0000 C   0  0  0  0  0  0  0  0  0  0  0  0
   -3.7500   -3.8971    0.0000 N   0  0  0  0  0  0  0  0  0  0  0  0
   -1.5000    0.0000    0.0000 C   0  0  0  0  0  0  0  0  0  0  0  0
   -3.0000    0.0000    0.0000 O   0  0  0  0  0  0  0  0  0  0  0  0
   -3.7500    1.2990    0.0000 C   0  0  0  0  0  0  0  0  0  0  0  0
   -5.2500    1.2990    0.0000 C   0  0  0  0  0  0  0  0  0  0  0  0
   -3.0000    2.5981    0.0000 C   0  0  0  0  0  0  0  0  0  0  0  0
   -0.7500    1.2990    0.0000 C   0  0  0  0  0  0  0  0  0  0  0  0
    0.7500    1.2990    0.0000 C   0  0  0  0  0  0  0  0  0  0  0  0
    1.5000    2.5981    0.0000 C   0  0  0  0  0  0  0  0  0  0  0  0
    2.9489    2.9863    0.0000 C   0  0  0  0  0  0  0  0  0  0  0  0
    2.5607    4.4352    0.0000 N   0  0  0  0  0  0  0  0  0  0  0  0
    3.3107    5.7342    0.0000 C   0  0  0  0  0  0  0  0  0  0  0  0
    1.1118    4.0470    0.0000 C   0  0  0  0  0  0  0  0  0  0  0  0
  1  2  1  0
  2  3  2  0
  3  4  1  0
  4  5  1  0
  5  6  1  0
  6  7  2  0
  7  8  1  0
  8  9  2  0
  9 10  1  0
  9 11  1  0
 11 12  1  0
 12 13  1  0
 13 14  2  0
 14 15  1  0
 15 16  1  0
 15 17  1  0
 17 18  2  0
 18 19  1  0
 19 20  2  0
 19 21  2  0
 19 22  1  0
 22 23  1  0
 22 24  1  0
 11 25  2  0
  4 26  2  0
 26 27  1  0
 27 28  1  0
 28 29  1  0
 28 30  1  0
 26 31  1  0
 31 32  2  0
 32 33  1  0
 33 34  1  0
 34 35  1  0
 35 36  1  0
 35 37  1  0
 32  2  1  0
 37 33  1  0
 25  6  1  0
 18 13  1  0
M  END
>  <Compound_ID>  (45) 
CHEMBL3604646

>  <Molecule Name>  (45) 
nan

>  <Molecular Weight>  (45) 
548.11

>  <AlogP>  (45) 
4.66

>  <Smiles>  (45) 
Cc1cc(Nc2ncc(Cl)c(Nc3cn(C)nc3S(=O)(=O)C(C)C)n2)c(OC(C)C)cc1C1CN(C)C1

>  <Standard Type>  (45) 
IC50

>  <Standard Relation>  (45) 
'='

>  <Standard Units>  (45) 
nM

>  <Standard Value>  (45) 
5.0

>  <Assay ChEMBL ID>  (45) 
CHEMBL3607641

>  <Assay Description>  (45) 
Inhibition of ALK L1196M mutant (unknown origin) using TK substrate-biotin incubated for 30 mins by HTRF assay

>  <BAO Format ID>  (45) 
BAO_0000357

>  <BAO Label>  (45) 
single protein format

>  <Assay Organism>  (45) 
Homo sapiens

>  <Target ChEMBL ID>  (45) 
CHEMBL4247

>  <Target Name>  (45) 
ALK tyrosine kinase receptor

>  <Target Organism>  (45) 
Homo sapiens

>  <Target Type>  (45) 
SINGLE PROTEIN

>  <Document ChEMBL ID>  (45) 
CHEMBL3603807

>  <Source Description>  (45) 
Scientific Literature

>  <Document Journal>  (45) 
Bioorg Med Chem Lett

>  <Document Year>  (45) 
2015.0

>  <Active>  (45) 
1.0

>  <bits>  (45) 
<rdkit.DataStructs.cDataStructs.ExplicitBitVect object at 0x000002422F1E2810>

>  <Group>  (45) 
G2

$$$$

     RDKit          2D

 38 41  0  0  0  0  0  0  0  0999 V2000
    3.0000    0.0000    0.0000 C   0  0  0  0  0  0  0  0  0  0  0  0
    1.5000    0.0000    0.0000 C   0  0  0  0  0  0  0  0  0  0  0  0
    0.7500   -1.2990    0.0000 C   0  0  0  0  0  0  0  0  0  0  0  0
   -0.7500   -1.2990    0.0000 C   0  0  0  0  0  0  0  0  0  0  0  0
   -1.5000   -2.5981    0.0000 N   0  0  0  0  0  0  0  0  0  0  0  0
   -3.0000   -2.5981    0.0000 C   0  0  0  0  0  0  0  0  0  0  0  0
   -3.7500   -1.2990    0.0000 N   0  0  0  0  0  0  0  0  0  0  0  0
   -5.2500   -1.2990    0.0000 C   0  0  0  0  0  0  0  0  0  0  0  0
   -6.0000   -2.5981    0.0000 C   0  0  0  0  0  0  0  0  0  0  0  0
   -7.5000   -2.5981    0.0000 Cl  0  0  0  0  0  0  0  0  0  0  0  0
   -5.2500   -3.8971    0.0000 C   0  0  0  0  0  0  0  0  0  0  0  0
   -6.0000   -5.1962    0.0000 N   0  0  0  0  0  0  0  0  0  0  0  0
   -5.2500   -6.4952    0.0000 C   0  0  0  0  0  0  0  0  0  0  0  0
   -3.7582   -6.6520    0.0000 C   0  0  0  0  0  0  0  0  0  0  0  0
   -3.4463   -8.1192    0.0000 N   0  0  0  0  0  0  0  0  0  0  0  0
   -2.0760   -8.7293    0.0000 C   0  0  0  0  0  0  0  0  0  0  0  0
   -4.7454   -8.8692    0.0000 N   0  0  0  0  0  0  0  0  0  0  0  0
   -5.8601   -7.8655    0.0000 C   0  0  0  0  0  0  0  0  0  0  0  0
   -7.3273   -8.1774    0.0000 S   0  0  0  0  0  0  0  0  0  0  0  0
   -7.6392   -6.7102    0.0000 O   0  0  0  0  0  0  0  0  0  0  0  0
   -7.0155   -9.6446    0.0000 O   0  0  0  0  0  0  0  0  0  0  0  0
   -8.7945   -8.4892    0.0000 C   0  0  0  0  0  0  0  0  0  0  0  0
   -9.7982   -7.3745    0.0000 C   0  0  0  0  0  0  0  0  0  0  0  0
   -9.2581   -9.9158    0.0000 C   0  0  0  0  0  0  0  0  0  0  0  0
   -3.7500   -3.8971    0.0000 N   0  0  0  0  0  0  0  0  0  0  0  0
   -1.5000    0.0000    0.0000 C   0  0  0  0  0  0  0  0  0  0  0  0
   -3.0000    0.0000    0.0000 O   0  0  0  0  0  0  0  0  0  0  0  0
   -3.7500    1.2990    0.0000 C   0  0  0  0  0  0  0  0  0  0  0  0
   -5.2500    1.2990    0.0000 C   0  0  0  0  0  0  0  0  0  0  0  0
   -3.0000    2.5981    0.0000 C   0  0  0  0  0  0  0  0  0  0  0  0
   -0.7500    1.2990    0.0000 C   0  0  0  0  0  0  0  0  0  0  0  0
    0.7500    1.2990    0.0000 C   0  0  0  0  0  0  0  0  0  0  0  0
    1.5000    2.5981    0.0000 C   0  0  0  0  0  0  0  0  0  0  0  0
    3.0000    2.5981    0.0000 C   0  0  0  0  0  0  0  0  0  0  0  0
    3.7500    3.8971    0.0000 C   0  0  0  0  0  0  0  0  0  0  0  0
    3.0000    5.1962    0.0000 N   0  0  0  0  0  0  0  0  0  0  0  0
    1.5000    5.1962    0.0000 C   0  0  0  0  0  0  0  0  0  0  0  0
    0.7500    3.8971    0.0000 C   0  0  0  0  0  0  0  0  0  0  0  0
  1  2  1  0
  2  3  2  0
  3  4  1  0
  4  5  1  0
  5  6  1  0
  6  7  2  0
  7  8  1  0
  8  9  2  0
  9 10  1  0
  9 11  1  0
 11 12  1  0
 12 13  1  0
 13 14  2  0
 14 15  1  0
 15 16  1  0
 15 17  1  0
 17 18  2  0
 18 19  1  0
 19 20  2  0
 19 21  2  0
 19 22  1  0
 22 23  1  0
 22 24  1  0
 11 25  2  0
  4 26  2  0
 26 27  1  0
 27 28  1  0
 28 29  1  0
 28 30  1  0
 26 31  1  0
 31 32  2  0
 32 33  1  0
 33 34  1  0
 34 35  1  0
 35 36  1  0
 36 37  1  0
 37 38  1  0
 32  2  1  0
 38 33  1  0
 25  6  1  0
 18 13  1  0
M  END
>  <Compound_ID>  (46) 
CHEMBL3604631

>  <Molecule Name>  (46) 
nan

>  <Molecular Weight>  (46) 
562.14

>  <AlogP>  (46) 
5.10

>  <Smiles>  (46) 
Cc1cc(Nc2ncc(Cl)c(Nc3cn(C)nc3S(=O)(=O)C(C)C)n2)c(OC(C)C)cc1C1CCNCC1

>  <Standard Type>  (46) 
IC50

>  <Standard Relation>  (46) 
'='

>  <Standard Units>  (46) 
nM

>  <Standard Value>  (46) 
20.0

>  <Assay ChEMBL ID>  (46) 
CHEMBL3607641

>  <Assay Description>  (46) 
Inhibition of ALK L1196M mutant (unknown origin) using TK substrate-biotin incubated for 30 mins by HTRF assay

>  <BAO Format ID>  (46) 
BAO_0000357

>  <BAO Label>  (46) 
single protein format

>  <Assay Organism>  (46) 
Homo sapiens

>  <Target ChEMBL ID>  (46) 
CHEMBL4247

>  <Target Name>  (46) 
ALK tyrosine kinase receptor

>  <Target Organism>  (46) 
Homo sapiens

>  <Target Type>  (46) 
SINGLE PROTEIN

>  <Document ChEMBL ID>  (46) 
CHEMBL3603807

>  <Source Description>  (46) 
Scientific Literature

>  <Document Journal>  (46) 
Bioorg Med Chem Lett

>  <Document Year>  (46) 
2015.0

>  <Active>  (46) 
1.0

>  <bits>  (46) 
<rdkit.DataStructs.cDataStructs.ExplicitBitVect object at 0x000002422F1E27A0>

>  <Group>  (46) 
G2

$$$$

     RDKit          2D

 35 39  0  0  0  0  0  0  0  0999 V2000
    3.0000    0.0000    0.0000 C   0  0  0  0  0  0  0  0  0  0  0  0
    1.5000    0.0000    0.0000 C   0  0  0  0  0  0  0  0  0  0  0  0
    0.7500   -1.2990    0.0000 C   0  0  0  0  0  0  0  0  0  0  0  0
   -0.7500   -1.2990    0.0000 C   0  0  0  0  0  0  0  0  0  0  0  0
   -1.5000   -2.5981    0.0000 N   0  0  0  0  0  0  0  0  0  0  0  0
   -3.0000   -2.5981    0.0000 C   0  0  0  0  0  0  0  0  0  0  0  0
   -3.7500   -1.2990    0.0000 N   0  0  0  0  0  0  0  0  0  0  0  0
   -5.2500   -1.2990    0.0000 C   0  0  0  0  0  0  0  0  0  0  0  0
   -6.0000   -2.5981    0.0000 C   0  0  0  0  0  0  0  0  0  0  0  0
   -7.5000   -2.5981    0.0000 Cl  0  0  0  0  0  0  0  0  0  0  0  0
   -5.2500   -3.8971    0.0000 C   0  0  0  0  0  0  0  0  0  0  0  0
   -6.0000   -5.1962    0.0000 N   0  0  0  0  0  0  0  0  0  0  0  0
   -5.2500   -6.4952    0.0000 C   0  0  0  0  0  0  0  0  0  0  0  0
   -3.7582   -6.6520    0.0000 C   0  0  0  0  0  0  0  0  0  0  0  0
   -3.4463   -8.1192    0.0000 N   0  0  0  0  0  0  0  0  0  0  0  0
   -2.0760   -8.7293    0.0000 C   0  0  0  0  0  0  0  0  0  0  0  0
   -4.7454   -8.8692    0.0000 N   0  0  0  0  0  0  0  0  0  0  0  0
   -5.8601   -7.8655    0.0000 C   0  0  0  0  0  0  0  0  0  0  0  0
   -7.3273   -8.1774    0.0000 C   0  0  0  0  0  0  0  0  0  0  0  0
   -8.7945   -8.4892    0.0000 N   0  0  0  0  0  0  0  0  0  0  0  0
   -3.7500   -3.8971    0.0000 N   0  0  0  0  0  0  0  0  0  0  0  0
   -1.5000    0.0000    0.0000 C   0  0  0  0  0  0  0  0  0  0  0  0
   -3.0000    0.0000    0.0000 O   0  0  0  0  0  0  0  0  0  0  0  0
   -3.7500    1.2990    0.0000 C   0  0  0  0  0  0  0  0  0  0  0  0
   -5.0490    2.0490    0.0000 C   0  0  0  0  0  0  0  0  0  0  0  0
   -3.7500    2.7990    0.0000 C   0  0  0  0  0  0  0  0  0  0  0  0
   -0.7500    1.2990    0.0000 C   0  0  0  0  0  0  0  0  0  0  0  0
    0.7500    1.2990    0.0000 C   0  0  0  0  0  0  0  0  0  0  0  0
    1.5000    2.5981    0.0000 C   0  0  0  0  0  0  0  0  0  0  0  0
    3.0000    2.5981    0.0000 C   0  0  0  0  0  0  0  0  0  0  0  0
    3.7500    3.8971    0.0000 C   0  0  0  0  0  0  0  0  0  0  0  0
    3.0000    5.1962    0.0000 N   0  0  0  0  0  0  0  0  0  0  0  0
    3.7500    6.4952    0.0000 C   0  0  0  0  0  0  0  0  0  0  0  0
    1.5000    5.1962    0.0000 C   0  0  0  0  0  0  0  0  0  0  0  0
    0.7500    3.8971    0.0000 C   0  0  0  0  0  0  0  0  0  0  0  0
  1  2  1  0
  2  3  2  0
  3  4  1  0
  4  5  1  0
  5  6  1  0
  6  7  2  0
  7  8  1  0
  8  9  2  0
  9 10  1  0
  9 11  1  0
 11 12  1  0
 12 13  1  0
 13 14  2  0
 14 15  1  0
 15 16  1  0
 15 17  1  0
 17 18  2  0
 18 19  1  0
 19 20  3  0
 11 21  2  0
  4 22  2  0
 22 23  1  0
 23 24  1  0
 24 25  1  0
 25 26  1  0
 22 27  1  0
 27 28  2  0
 28 29  1  0
 29 30  1  0
 30 31  1  0
 31 32  1  0
 32 33  1  0
 32 34  1  0
 34 35  1  0
 28  2  1  0
 35 29  1  0
 21  6  1  0
 26 24  1  0
 18 13  1  0
M  END
>  <Compound_ID>  (47) 
CHEMBL3786148

>  <Molecule Name>  (47) 
nan

>  <Molecular Weight>  (47) 
493.02

>  <AlogP>  (47) 
4.88

>  <Smiles>  (47) 
Cc1cc(Nc2ncc(Cl)c(Nc3cn(C)nc3C#N)n2)c(OC2CC2)cc1C1CCN(C)CC1

>  <Standard Type>  (47) 
IC50

>  <Standard Relation>  (47) 
'='

>  <Standard Units>  (47) 
nM

>  <Standard Value>  (47) 
3.0

>  <Assay ChEMBL ID>  (47) 
CHEMBL3791910

>  <Assay Description>  (47) 
Inhibition of recombinant human wild type ALK using tyrosine kinase substrate-biotin after 30 mins by HTRF assay

>  <BAO Format ID>  (47) 
BAO_0000357

>  <BAO Label>  (47) 
single protein format

>  <Assay Organism>  (47) 
Homo sapiens

>  <Target ChEMBL ID>  (47) 
CHEMBL4247

>  <Target Name>  (47) 
ALK tyrosine kinase receptor

>  <Target Organism>  (47) 
Homo sapiens

>  <Target Type>  (47) 
SINGLE PROTEIN

>  <Document ChEMBL ID>  (47) 
CHEMBL3785058

>  <Source Description>  (47) 
Scientific Literature

>  <Document Journal>  (47) 
Bioorg Med Chem Lett

>  <Document Year>  (47) 
2016.0

>  <Active>  (47) 
1.0

>  <bits>  (47) 
<rdkit.DataStructs.cDataStructs.ExplicitBitVect object at 0x000002422F1E2650>

>  <Group>  (47) 
G2

$$$$

     RDKit          2D

 32 36  0  0  0  0  0  0  0  0999 V2000
    6.0000  -10.3923    0.0000 C   0  0  0  0  0  0  0  0  0  0  0  0
    5.2500   -9.0933    0.0000 N   0  0  0  0  0  0  0  0  0  0  0  0
    3.7500   -9.0933    0.0000 C   0  0  0  0  0  0  0  0  0  0  0  0
    3.0000   -7.7942    0.0000 C   0  0  0  0  0  0  0  0  0  0  0  0
    3.7500   -6.4952    0.0000 N   0  0  0  0  0  0  0  0  0  0  0  0
    3.0000   -5.1962    0.0000 C   0  0  0  0  0  0  0  0  0  0  0  0
    3.7500   -3.8971    0.0000 C   0  0  0  0  0  0  0  0  0  0  0  0
    3.0000   -2.5981    0.0000 C   0  0  0  0  0  0  0  0  0  0  0  0
    1.5000   -2.5981    0.0000 C   0  0  0  0  0  0  0  0  0  0  0  0
    0.7500   -1.2990    0.0000 C   0  0  0  0  0  0  0  0  0  0  0  0
    1.5000    0.0000    0.0000 C   0  0  0  0  0  0  0  0  0  0  0  0
    0.7500    1.2990    0.0000 N   0  0  0  0  0  0  0  0  0  0  0  0
   -0.7500    1.2990    0.0000 C   0  0  0  0  0  0  0  0  0  0  0  0
   -1.5000    0.0000    0.0000 C   0  0  0  0  0  0  0  0  0  0  0  0
   -0.7500   -1.2990    0.0000 C   0  0  0  0  0  0  0  0  0  0  0  0
   -3.0000    0.0000    0.0000 N   0  0  0  0  0  0  0  0  0  0  0  0
   -3.7500   -1.2990    0.0000 C   0  0  0  0  0  0  0  0  0  0  0  0
   -5.2500   -1.2990    0.0000 C   0  0  0  0  0  0  0  0  0  0  0  0
   -6.0000    0.0000    0.0000 C   0  0  0  0  0  0  0  0  0  0  0  0
   -7.5000    0.0000    0.0000 C   0  0  0  0  0  0  0  0  0  0  0  0
   -8.2500    1.2990    0.0000 Cl  0  0  0  0  0  0  0  0  0  0  0  0
   -8.2500   -1.2990    0.0000 C   0  0  0  0  0  0  0  0  0  0  0  0
   -7.5000   -2.5981    0.0000 C   0  0  0  0  0  0  0  0  0  0  0  0
   -6.0000   -2.5981    0.0000 C   0  0  0  0  0  0  0  0  0  0  0  0
   -5.2500   -3.8971    0.0000 Cl  0  0  0  0  0  0  0  0  0  0  0  0
   -3.7500    1.2990    0.0000 C   0  0  0  0  0  0  0  0  0  0  0  0
   -3.0000    2.5981    0.0000 C   0  0  0  0  0  0  0  0  0  0  0  0
   -1.5000    2.5981    0.0000 N   0  0  0  0  0  0  0  0  0  0  0  0
    0.7500   -3.8971    0.0000 C   0  0  0  0  0  0  0  0  0  0  0  0
    1.5000   -5.1962    0.0000 N   0  0  0  0  0  0  0  0  0  0  0  0
    5.2500   -6.4952    0.0000 C   0  0  0  0  0  0  0  0  0  0  0  0
    6.0000   -7.7942    0.0000 C   0  0  0  0  0  0  0  0  0  0  0  0
  1  2  1  0
  2  3  1  0
  3  4  1  0
  4  5  1  0
  5  6  1  0
  6  7  2  0
  7  8  1  0
  8  9  2  0
  9 10  1  0
 10 11  2  0
 11 12  1  0
 12 13  2  0
 13 14  1  0
 14 15  2  0
 14 16  1  0
 16 17  1  0
 17 18  1  0
 18 19  2  0
 19 20  1  0
 20 21  1  0
 20 22  2  0
 22 23  1  0
 23 24  2  0
 24 25  1  0
 16 26  1  0
 26 27  1  0
 27 28  1  0
  9 29  1  0
 29 30  2  0
  5 31  1  0
 31 32  1  0
 32  2  1  0
 30  6  1  0
 15 10  1  0
 24 18  1  0
 28 13  1  0
M  END
>  <Compound_ID>  (48) 
CHEMBL1164181

>  <Molecule Name>  (48) 
nan

>  <Molecular Weight>  (48) 
469.42

>  <AlogP>  (48) 
4.63

>  <Smiles>  (48) 
CN1CCN(c2ccc(-c3cnc4c(c3)N(Cc3cc(Cl)ccc3Cl)CCN4)cn2)CC1

>  <Standard Type>  (48) 
IC50

>  <Standard Relation>  (48) 
'='

>  <Standard Units>  (48) 
nM

>  <Standard Value>  (48) 
11.0

>  <Assay ChEMBL ID>  (48) 
CHEMBL1168570

>  <Assay Description>  (48) 
Inhibition of ALK by time-resolved fluorescence assay

>  <BAO Format ID>  (48) 
BAO_0000357

>  <BAO Label>  (48) 
single protein format

>  <Assay Organism>  (48) 
None

>  <Target ChEMBL ID>  (48) 
CHEMBL4247

>  <Target Name>  (48) 
ALK tyrosine kinase receptor

>  <Target Organism>  (48) 
Homo sapiens

>  <Target Type>  (48) 
SINGLE PROTEIN

>  <Document ChEMBL ID>  (48) 
CHEMBL1165965

>  <Source Description>  (48) 
Scientific Literature

>  <Document Journal>  (48) 
Bioorg Med Chem

>  <Document Year>  (48) 
2010.0

>  <Active>  (48) 
1.0

>  <bits>  (48) 
<rdkit.DataStructs.cDataStructs.ExplicitBitVect object at 0x000002422F1E23B0>

>  <Group>  (48) 
G2

$$$$

     RDKit          2D

 28 31  0  0  0  0  0  0  0  0999 V2000
    3.0000    0.0000    0.0000 C   0  0  0  0  0  0  0  0  0  0  0  0
    1.5000    0.0000    0.0000 N   0  0  0  0  0  0  0  0  0  0  0  0
    0.7500   -1.2990    0.0000 C   0  0  0  0  0  0  0  0  0  0  0  0
   -0.7500   -1.2990    0.0000 C   0  0  0  0  0  0  0  0  0  0  0  0
   -1.5000    0.0000    0.0000 N   0  0  0  0  0  0  0  0  0  0  0  0
   -3.0000    0.0000    0.0000 C   0  0  0  0  0  0  0  0  0  0  0  0
   -3.7500    1.2990    0.0000 C   0  0  0  0  0  0  0  0  0  0  0  0
   -5.2500    1.2990    0.0000 C   0  0  0  0  0  0  0  0  0  0  0  0
   -6.0000    0.0000    0.0000 C   0  0  0  0  0  0  0  0  0  0  0  0
   -7.5000    0.0000    0.0000 N   0  0  0  0  0  0  0  0  0  0  0  0
   -8.2500    1.2990    0.0000 C   0  0  0  0  0  0  0  0  0  0  0  0
   -7.5000    2.5981    0.0000 N   0  0  0  0  0  0  0  0  0  0  0  0
   -8.2500    3.8971    0.0000 C   0  0  0  0  0  0  0  0  0  0  0  0
   -9.7500    3.8971    0.0000 C   0  0  0  0  0  0  0  0  0  0  0  0
  -10.5000    5.1962    0.0000 Cl  0  0  0  0  0  0  0  0  0  0  0  0
  -10.5000    2.5981    0.0000 C   0  0  0  0  0  0  0  0  0  0  0  0
  -12.0000    2.5981    0.0000 N   0  0  0  0  0  0  0  0  0  0  0  0
  -12.7500    1.2990    0.0000 C   0  0  0  0  0  0  0  0  0  0  0  0
  -14.2500    1.2990    0.0000 C   0  0  0  0  0  0  0  0  0  0  0  0
  -15.0000   -0.0000    0.0000 C   0  0  0  0  0  0  0  0  0  0  0  0
  -14.2500   -1.2990    0.0000 C   0  0  0  0  0  0  0  0  0  0  0  0
  -12.7500   -1.2990    0.0000 C   0  0  0  0  0  0  0  0  0  0  0  0
  -12.0000   -0.0000    0.0000 C   0  0  0  0  0  0  0  0  0  0  0  0
   -9.7500    1.2990    0.0000 N   0  0  0  0  0  0  0  0  0  0  0  0
   -5.2500   -1.2990    0.0000 C   0  0  0  0  0  0  0  0  0  0  0  0
   -3.7500   -1.2990    0.0000 C   0  0  0  0  0  0  0  0  0  0  0  0
   -0.7500    1.2990    0.0000 C   0  0  0  0  0  0  0  0  0  0  0  0
    0.7500    1.2990    0.0000 C   0  0  0  0  0  0  0  0  0  0  0  0
  1  2  1  0
  2  3  1  0
  3  4  1  0
  4  5  1  0
  5  6  1  0
  6  7  2  0
  7  8  1  0
  8  9  2  0
  9 10  1  0
 10 11  1  0
 11 12  2  0
 12 13  1  0
 13 14  2  0
 14 15  1  0
 14 16  1  0
 16 17  1  0
 17 18  1  0
 18 19  2  0
 19 20  1  0
 20 21  2  0
 21 22  1  0
 22 23  2  0
 16 24  2  0
  9 25  1  0
 25 26  2  0
  5 27  1  0
 27 28  1  0
 28  2  1  0
 26  6  1  0
 24 11  1  0
 23 18  1  0
M  END
>  <Compound_ID>  (49) 
CHEMBL1946607

>  <Molecule Name>  (49) 
nan

>  <Molecular Weight>  (49) 
394.91

>  <AlogP>  (49) 
4.37

>  <Smiles>  (49) 
CN1CCN(c2ccc(Nc3ncc(Cl)c(Nc4ccccc4)n3)cc2)CC1

>  <Standard Type>  (49) 
IC50

>  <Standard Relation>  (49) 
'='

>  <Standard Units>  (49) 
nM

>  <Standard Value>  (49) 
67.0

>  <Assay ChEMBL ID>  (49) 
CHEMBL1947647

>  <Assay Description>  (49) 
Inhibition of baculovirus expressed GST-tagged human ALK cytoplasmic domain using PLCgamma as substrate after 15 mins by time-resolved fluorescence analysis

>  <BAO Format ID>  (49) 
BAO_0000357

>  <BAO Label>  (49) 
single protein format

>  <Assay Organism>  (49) 
Homo sapiens

>  <Target ChEMBL ID>  (49) 
CHEMBL4247

>  <Target Name>  (49) 
ALK tyrosine kinase receptor

>  <Target Organism>  (49) 
Homo sapiens

>  <Target Type>  (49) 
SINGLE PROTEIN

>  <Document ChEMBL ID>  (49) 
CHEMBL1944522

>  <Source Description>  (49) 
Scientific Literature

>  <Document Journal>  (49) 
J Med Chem

>  <Document Year>  (49) 
2012.0

>  <Active>  (49) 
1.0

>  <bits>  (49) 
<rdkit.DataStructs.cDataStructs.ExplicitBitVect object at 0x000002422F1E2F80>

>  <Group>  (49) 
G2

$$$$

     RDKit          2D

 42 45  0  0  0  0  0  0  0  0999 V2000
    3.2010   -3.3481    0.0000 H   0  0  0  0  0  0  0  0  0  0  0  0
    4.5000   -2.5981    0.0000 C   0  0  0  0  0  0  0  0  0  0  0  0
    5.7990   -1.8481    0.0000 H   0  0  0  0  0  0  0  0  0  0  0  0
    5.2500   -3.8971    0.0000 H   0  0  0  0  0  0  0  0  0  0  0  0
    3.7500   -1.2990    0.0000 C   0  0  0  0  0  0  0  0  0  0  0  0
    5.0490   -0.5490    0.0000 H   0  0  0  0  0  0  0  0  0  0  0  0
    2.4510   -2.0490    0.0000 H   0  0  0  0  0  0  0  0  0  0  0  0
    3.0000    0.0000    0.0000 O   0  0  0  0  0  0  0  0  0  0  0  0
    1.5000    0.0000    0.0000 C   0  0  0  0  0  0  0  0  0  0  0  0
    0.7500   -1.2990    0.0000 C   0  0  0  0  0  0  0  0  0  0  0  0
   -0.7500   -1.2990    0.0000 C   0  0  0  0  0  0  0  0  0  0  0  0
   -1.5000   -2.5981    0.0000 C   0  0  0  0  0  0  0  0  0  0  0  0
   -3.0000   -2.5981    0.0000 C   0  0  0  0  0  0  0  0  0  0  0  0
   -3.7500   -3.8971    0.0000 C   0  0  0  0  0  0  0  0  0  0  0  0
   -3.0000   -5.1962    0.0000 N   0  0  0  0  0  0  0  0  0  0  0  0
   -1.5000   -5.1962    0.0000 C   0  0  0  0  0  0  0  0  0  0  0  0
   -0.7500   -3.8971    0.0000 C   0  0  0  0  0  0  0  0  0  0  0  0
   -1.5000    0.0000    0.0000 C   0  0  0  0  0  0  0  0  0  0  0  0
   -3.0000    0.0000    0.0000 C   0  0  0  0  0  0  0  0  0  0  0  0
   -0.7500    1.2990    0.0000 C   0  0  0  0  0  0  0  0  0  0  0  0
    0.7500    1.2990    0.0000 C   0  0  0  0  0  0  0  0  0  0  0  0
    1.5000    2.5981    0.0000 N   0  0  0  0  0  0  0  0  0  0  0  0
    3.0000    2.5981    0.0000 C   0  0  0  0  0  0  0  0  0  0  0  0
    3.7500    1.2990    0.0000 N   0  0  0  0  0  0  0  0  0  0  0  0
    5.2500    1.2990    0.0000 C   0  0  0  0  0  0  0  0  0  0  0  0
    6.0000    2.5981    0.0000 C   0  0  0  0  0  0  0  0  0  0  0  0
    7.5000    2.5981    0.0000 Cl  0  0  0  0  0  0  0  0  0  0  0  0
    5.2500    3.8971    0.0000 C   0  0  0  0  0  0  0  0  0  0  0  0
    6.0000    5.1962    0.0000 N   0  0  0  0  0  0  0  0  0  0  0  0
    5.2500    6.4952    0.0000 C   0  0  0  0  0  0  0  0  0  0  0  0
    3.7500    6.4952    0.0000 C   0  0  0  0  0  0  0  0  0  0  0  0
    3.0000    7.7942    0.0000 C   0  0  0  0  0  0  0  0  0  0  0  0
    3.7500    9.0933    0.0000 C   0  0  0  0  0  0  0  0  0  0  0  0
    5.2500    9.0933    0.0000 C   0  0  0  0  0  0  0  0  0  0  0  0
    6.0000    7.7942    0.0000 C   0  0  0  0  0  0  0  0  0  0  0  0
    7.5000    7.7942    0.0000 S   0  0  0  0  0  0  0  0  0  0  0  0
    7.5000    6.2942    0.0000 O   0  0  0  0  0  0  0  0  0  0  0  0
    7.5000    9.2942    0.0000 O   0  0  0  0  0  0  0  0  0  0  0  0
    9.0000    7.7942    0.0000 C   0  0  0  0  0  0  0  0  0  0  0  0
    9.7500    9.0933    0.0000 C   0  0  0  0  0  0  0  0  0  0  0  0
    9.7500    6.4952    0.0000 C   0  0  0  0  0  0  0  0  0  0  0  0
    3.7500    3.8971    0.0000 N   0  0  0  0  0  0  0  0  0  0  0  0
  1  2  1  0
  2  3  1  0
  2  4  1  0
  2  5  1  0
  5  6  1  0
  5  7  1  0
  5  8  1  0
  8  9  1  0
  9 10  2  0
 10 11  1  0
 11 12  1  0
 12 13  1  0
 13 14  1  0
 14 15  1  0
 15 16  1  0
 16 17  1  0
 11 18  2  0
 18 19  1  0
 18 20  1  0
 20 21  2  0
 21 22  1  0
 22 23  1  0
 23 24  2  0
 24 25  1  0
 25 26  2  0
 26 27  1  0
 26 28  1  0
 28 29  1  0
 29 30  1  0
 30 31  2  0
 31 32  1  0
 32 33  2  0
 33 34  1  0
 34 35  2  0
 35 36  1  0
 36 37  2  0
 36 38  2  0
 36 39  1  0
 39 40  1  0
 39 41  1  0
 28 42  2  0
 21  9  1  0
 42 23  1  0
 17 12  1  0
 35 30  1  0
M  ISO  5   1   2   3   2   4   2   6   2   7   2
M  END
>  <Compound_ID>  (50) 
CHEMBL4451829

>  <Molecule Name>  (50) 
nan

>  <Molecular Weight>  (50) 
549.15

>  <AlogP>  (50) 
5.97

>  <Smiles>  (50) 
[2H]C([2H])([2H])C([2H])([2H])Oc1cc(C2CCNCC2)c(C)cc1Nc1ncc(Cl)c(Nc2ccccc2S(=O)(=O)C(C)C)n1

>  <Standard Type>  (50) 
IC50

>  <Standard Relation>  (50) 
'='

>  <Standard Units>  (50) 
nM

>  <Standard Value>  (50) 
51.62

>  <Assay ChEMBL ID>  (50) 
CHEMBL4388505

>  <Assay Description>  (50) 
Inhibition of ALK F1174L mutant (unknown origin)

>  <BAO Format ID>  (50) 
BAO_0000357

>  <BAO Label>  (50) 
single protein format

>  <Assay Organism>  (50) 
Homo sapiens

>  <Target ChEMBL ID>  (50) 
CHEMBL4247

>  <Target Name>  (50) 
ALK tyrosine kinase receptor

>  <Target Organism>  (50) 
Homo sapiens

>  <Target Type>  (50) 
SINGLE PROTEIN

>  <Document ChEMBL ID>  (50) 
CHEMBL4387718

>  <Source Description>  (50) 
Scientific Literature

>  <Document Journal>  (50) 
Bioorg Med Chem Lett

>  <Document Year>  (50) 
2019.0

>  <Active>  (50) 
1.0

>  <bits>  (50) 
<rdkit.DataStructs.cDataStructs.ExplicitBitVect object at 0x000002422F1E1B60>

>  <Group>  (50) 
G2

$$$$

     RDKit          2D

 32 35  0  0  0  0  0  0  0  0999 V2000
    2.6491   -3.5623    0.0000 C   0  0  0  0  0  0  0  0  0  0  0  0
    1.5000   -2.5981    0.0000 C   0  0  0  0  0  0  0  0  0  0  0  0
    2.6491   -1.6339    0.0000 C   0  0  0  0  0  0  0  0  0  0  0  0
    0.7500   -1.2990    0.0000 C   0  0  0  0  0  0  0  0  0  0  0  0
    1.5000    0.0000    0.0000 C   0  0  0  0  0  0  0  0  0  0  0  0
    0.7500    1.2990    0.0000 C   0  0  0  0  0  0  0  0  0  0  0  0
    1.5000    2.5981    0.0000 C   0  0  0  0  0  0  0  0  0  0  0  0
    0.7500    3.8971    0.0000 O   0  0  0  0  0  0  0  0  0  0  0  0
    3.0000    2.5981    0.0000 N   0  0  0  0  0  0  0  0  0  0  0  0
    3.7500    3.8971    0.0000 C   0  0  0  0  0  0  0  0  0  0  0  0
    5.2500    3.8971    0.0000 C   0  0  0  0  0  0  0  0  0  0  0  0
    6.0000    5.1962    0.0000 N   0  0  0  0  0  0  0  0  0  0  0  0
    7.5000    5.1962    0.0000 S   0  0  0  0  0  0  0  0  0  0  0  0
    9.0000    5.1962    0.0000 N   0  0  0  0  0  0  0  0  0  0  0  0
    7.5000    3.6962    0.0000 O   0  0  0  0  0  0  0  0  0  0  0  0
    7.5000    6.6962    0.0000 O   0  0  0  0  0  0  0  0  0  0  0  0
   -0.7500    1.2990    0.0000 C   0  0  0  0  0  0  0  0  0  0  0  0
   -1.5000    0.0000    0.0000 C   0  0  0  0  0  0  0  0  0  0  0  0
   -0.7500   -1.2990    0.0000 C   0  0  0  0  0  0  0  0  0  0  0  0
   -1.5000   -2.5981    0.0000 C   0  0  0  0  0  0  0  0  0  0  0  0
   -3.0000   -2.5981    0.0000 O   0  0  0  0  0  0  0  0  0  0  0  0
   -0.7500   -3.8971    0.0000 C   0  0  0  0  0  0  0  0  0  0  0  0
    0.7500   -3.8971    0.0000 C   0  0  0  0  0  0  0  0  0  0  0  0
    1.2135   -5.3237    0.0000 N   0  0  0  0  0  0  0  0  0  0  0  0
    0.0000   -6.2054    0.0000 C   0  0  0  0  0  0  0  0  0  0  0  0
   -0.1568   -7.6972    0.0000 C   0  0  0  0  0  0  0  0  0  0  0  0
   -1.5271   -8.3073    0.0000 C   0  0  0  0  0  0  0  0  0  0  0  0
   -1.6839   -9.7990    0.0000 C   0  0  0  0  0  0  0  0  0  0  0  0
   -1.8407  -11.2908    0.0000 N   0  0  0  0  0  0  0  0  0  0  0  0
   -2.7406   -7.4256    0.0000 C   0  0  0  0  0  0  0  0  0  0  0  0
   -2.5838   -5.9338    0.0000 C   0  0  0  0  0  0  0  0  0  0  0  0
   -1.2135   -5.3237    0.0000 C   0  0  0  0  0  0  0  0  0  0  0  0
  1  2  1  0
  2  3  1  0
  2  4  1  0
  4  5  2  0
  5  6  1  0
  6  7  1  0
  7  8  2  0
  7  9  1  0
  9 10  1  0
 10 11  1  0
 11 12  1  0
 12 13  1  0
 13 14  1  0
 13 15  2  0
 13 16  2  0
  6 17  2  0
 17 18  1  0
 18 19  2  0
 19 20  1  0
 20 21  2  0
 20 22  1  0
 22 23  2  0
 23 24  1  0
 24 25  1  0
 25 26  2  0
 26 27  1  0
 27 28  1  0
 28 29  3  0
 27 30  2  0
 30 31  1  0
 31 32  2  0
 23  2  1  0
 32 25  1  0
 19  4  1  0
 32 22  1  0
M  END
>  <Compound_ID>  (51) 
CHEMBL3961470

>  <Molecule Name>  (51) 
nan

>  <Molecular Weight>  (51) 
451.51

>  <AlogP>  (51) 
1.43

>  <Smiles>  (51) 
CC1(C)c2cc(C(=O)NCCNS(N)(=O)=O)ccc2C(=O)c2c1[nH]c1cc(C#N)ccc21

>  <Standard Type>  (51) 
IC50

>  <Standard Relation>  (51) 
'='

>  <Standard Units>  (51) 
nM

>  <Standard Value>  (51) 
2.115

>  <Assay ChEMBL ID>  (51) 
CHEMBL3887074

>  <Assay Description>  (51) 
Inhibition Assay: ALK-inhibiting activity was measured by following an activity of inhibiting phosphorylation by biotinylated peptide (EGPWLEEEEEAYGWMDF). For the detection of phosphorylation of the biotinylated peptide, time-resolved fluorescence measurement was performed using an anti-phosphorylated tyrosine antibody labeled with europium cryptate and streptavidin conjugated to XL665, i.e., an allophycocyanin derivative.

>  <BAO Format ID>  (51) 
BAO_0000357

>  <BAO Label>  (51) 
single protein format

>  <Assay Organism>  (51) 
Homo sapiens

>  <Target ChEMBL ID>  (51) 
CHEMBL4247

>  <Target Name>  (51) 
ALK tyrosine kinase receptor

>  <Target Organism>  (51) 
Homo sapiens

>  <Target Type>  (51) 
SINGLE PROTEIN

>  <Document ChEMBL ID>  (51) 
CHEMBL3886150

>  <Source Description>  (51) 
BindingDB Database

>  <Document Journal>  (51) 
nan

>  <Document Year>  (51) 
2015.0

>  <Active>  (51) 
1.0

>  <bits>  (51) 
<rdkit.DataStructs.cDataStructs.ExplicitBitVect object at 0x000002422F1E3CA0>

>  <Group>  (51) 
G2

$$$$

     RDKit          2D

 47 51  0  0  0  0  0  0  0  0999 V2000
    6.0000   -2.5981    0.0000 C   0  0  0  0  0  0  0  0  0  0  0  0
    5.2500   -1.2990    0.0000 C   0  0  0  0  0  0  0  0  0  0  0  0
    3.7500   -1.2990    0.0000 N   0  0  0  0  0  0  0  0  0  0  0  0
    3.0000    0.0000    0.0000 C   0  0  0  0  0  0  0  0  0  0  0  0
    3.7500    1.2990    0.0000 O   0  0  0  0  0  0  0  0  0  0  0  0
    1.5000    0.0000    0.0000 N   0  0  0  0  0  0  0  0  0  0  0  0
    0.7500   -1.2990    0.0000 C   0  0  0  0  0  0  0  0  0  0  0  0
   -0.7500   -1.2990    0.0000 C   0  0  0  0  0  0  0  0  0  0  0  0
   -1.5000    0.0000    0.0000 N   0  0  0  0  0  0  0  0  0  0  0  0
   -3.0000    0.0000    0.0000 C   0  0  0  0  0  0  0  0  0  0  0  0
   -3.7500    1.2990    0.0000 C   0  0  0  0  0  0  0  0  0  0  0  0
   -5.2500    1.2990    0.0000 C   0  0  0  0  0  0  0  0  0  0  0  0
   -6.0000    0.0000    0.0000 C   0  0  0  0  0  0  0  0  0  0  0  0
   -7.5000    0.0000    0.0000 N   0  0  0  0  0  0  0  0  0  0  0  0
   -8.2500    1.2990    0.0000 C   0  0  0  0  0  0  0  0  0  0  0  0
   -7.5000    2.5981    0.0000 N   0  0  0  0  0  0  0  0  0  0  0  0
   -8.2500    3.8971    0.0000 C   0  0  0  0  0  0  0  0  0  0  0  0
   -9.7500    3.8971    0.0000 C   0  0  0  0  0  0  0  0  0  0  0  0
  -10.5000    5.1962    0.0000 Cl  0  0  0  0  0  0  0  0  0  0  0  0
  -10.5000    2.5981    0.0000 C   0  0  0  0  0  0  0  0  0  0  0  0
  -12.0000    2.5981    0.0000 N   0  0  0  0  0  0  0  0  0  0  0  0
  -12.7500    1.2990    0.0000 C   0  0  0  0  0  0  0  0  0  0  0  0
  -14.2500    1.2990    0.0000 C   0  0  0  0  0  0  0  0  0  0  0  0
  -15.0000   -0.0000    0.0000 C   0  0  0  0  0  0  0  0  0  0  0  0
  -14.2500   -1.2990    0.0000 C   0  0  0  0  0  0  0  0  0  0  0  0
  -15.0000   -2.5981    0.0000 N   0  0  0  0  0  0  0  0  0  0  0  0
  -16.5000   -2.5981    0.0000 C   0  0  0  0  0  0  0  0  0  0  0  0
  -17.2500   -3.8971    0.0000 C   0  0  0  0  0  0  0  0  0  0  0  0
  -16.5000   -5.1962    0.0000 N   0  0  0  0  0  0  0  0  0  0  0  0
  -17.2500   -6.4952    0.0000 C   0  0  0  0  0  0  0  0  0  0  0  0
  -16.5000   -7.7942    0.0000 O   0  0  0  0  0  0  0  0  0  0  0  0
  -18.7500   -6.4952    0.0000 N   0  0  0  0  0  0  0  0  0  0  0  0
  -19.5000   -7.7942    0.0000 C   0  0  0  0  0  0  0  0  0  0  0  0
  -21.0000   -7.7942    0.0000 C   0  0  0  0  0  0  0  0  0  0  0  0
  -15.0000   -5.1962    0.0000 C   0  0  0  0  0  0  0  0  0  0  0  0
  -14.2500   -3.8971    0.0000 C   0  0  0  0  0  0  0  0  0  0  0  0
  -12.7500   -1.2990    0.0000 C   0  0  0  0  0  0  0  0  0  0  0  0
  -12.0000   -0.0000    0.0000 C   0  0  0  0  0  0  0  0  0  0  0  0
  -10.5000   -0.0000    0.0000 O   0  0  0  0  0  0  0  0  0  0  0  0
   -9.7500   -1.2990    0.0000 C   0  0  0  0  0  0  0  0  0  0  0  0
   -9.7500    1.2990    0.0000 N   0  0  0  0  0  0  0  0  0  0  0  0
   -5.2500   -1.2990    0.0000 C   0  0  0  0  0  0  0  0  0  0  0  0
   -6.0000   -2.5981    0.0000 O   0  0  0  0  0  0  0  0  0  0  0  0
   -5.2500   -3.8971    0.0000 C   0  0  0  0  0  0  0  0  0  0  0  0
   -3.7500   -1.2990    0.0000 C   0  0  0  0  0  0  0  0  0  0  0  0
   -0.7500    1.2990    0.0000 C   0  0  0  0  0  0  0  0  0  0  0  0
    0.7500    1.2990    0.0000 C   0  0  0  0  0  0  0  0  0  0  0  0
  1  2  1  0
  2  3  1  0
  3  4  1  0
  4  5  2  0
  4  6  1  0
  6  7  1  0
  7  8  1  0
  8  9  1  0
  9 10  1  0
 10 11  2  0
 11 12  1  0
 12 13  2  0
 13 14  1  0
 14 15  1  0
 15 16  2  0
 16 17  1  0
 17 18  2  0
 18 19  1  0
 18 20  1  0
 20 21  1  0
 21 22  1  0
 22 23  2  0
 23 24  1  0
 24 25  2  0
 25 26  1  0
 26 27  1  0
 27 28  1  0
 28 29  1  0
 29 30  1  0
 30 31  2  0
 30 32  1  0
 32 33  1  0
 33 34  1  0
 29 35  1  0
 35 36  1  0
 25 37  1  0
 37 38  2  0
 38 39  1  0
 39 40  1  0
 20 41  2  0
 13 42  1  0
 42 43  1  0
 43 44  1  0
 42 45  2  0
  9 46  1  0
 46 47  1  0
 47  6  1  0
 45 10  1  0
 41 15  1  0
 38 22  1  0
 36 26  1  0
M  END
>  <Compound_ID>  (52) 
CHEMBL3926221

>  <Molecule Name>  (52) 
nan

>  <Molecular Weight>  (52) 
667.22

>  <AlogP>  (52) 
4.34

>  <Smiles>  (52) 
CCNC(=O)N1CCN(c2ccc(Nc3ncc(Cl)c(Nc4ccc(N5CCN(C(=O)NCC)CC5)cc4OC)n3)c(OC)c2)CC1

>  <Standard Type>  (52) 
IC50

>  <Standard Relation>  (52) 
'='

>  <Standard Units>  (52) 
nM

>  <Standard Value>  (52) 
18.0

>  <Assay ChEMBL ID>  (52) 
CHEMBL3887132

>  <Assay Description>  (52) 
Homogeneous Time-resolved fluorescence (HTRF) Assay: In order to measure the inhibitory activity against ALK, a Grainer 96-well round type bottom plate was added with the compounds (2 μl) prepared in Examples 1 to 89, and mixed with ALK enzyme (1 ul) and a peptide substrate (2 μl) with biotin attached thereto for 15 minutes and cultured thereafter. Here, ATP solution (5 μl) was added thereto and kinase reaction was performed at room temperature for 30 minutes. XL 665 (5 μl), to which Streptavidin dissolved in ethylenediaminetetraacetic acid solution was attached, anti-phosphotyrosine antibody (5 μl), to which europium (Eu3+) was attached, were added to a reaction solution to stop the reaction, cultured for 1 hour, and analyzed using Homogeneous Time-resolved fluorescence (HTRF, Cisbio). The result was read by a Wallac Envision 2103 device at the wavelength range of 615/665 nm.

>  <BAO Format ID>  (52) 
BAO_0000357

>  <BAO Label>  (52) 
single protein format

>  <Assay Organism>  (52) 
Homo sapiens

>  <Target ChEMBL ID>  (52) 
CHEMBL4247

>  <Target Name>  (52) 
ALK tyrosine kinase receptor

>  <Target Organism>  (52) 
Homo sapiens

>  <Target Type>  (52) 
SINGLE PROTEIN

>  <Document ChEMBL ID>  (52) 
CHEMBL3886178

>  <Source Description>  (52) 
BindingDB Database

>  <Document Journal>  (52) 
nan

>  <Document Year>  (52) 
2015.0

>  <Active>  (52) 
1.0

>  <bits>  (52) 
<rdkit.DataStructs.cDataStructs.ExplicitBitVect object at 0x000002422F1E2CE0>

>  <Group>  (52) 
G2

$$$$

     RDKit          2D

 29 33  0  0  0  0  0  0  0  0999 V2000
    2.6491   -3.5623    0.0000 C   0  0  0  0  0  0  0  0  0  0  0  0
    1.5000   -2.5981    0.0000 C   0  0  0  0  0  0  0  0  0  0  0  0
    2.6491   -1.6339    0.0000 C   0  0  0  0  0  0  0  0  0  0  0  0
    0.7500   -1.2990    0.0000 C   0  0  0  0  0  0  0  0  0  0  0  0
    1.5000    0.0000    0.0000 C   0  0  0  0  0  0  0  0  0  0  0  0
    0.7500    1.2990    0.0000 C   0  0  0  0  0  0  0  0  0  0  0  0
    1.5000    2.5981    0.0000 C   0  0  0  0  0  0  0  0  0  0  0  0
    0.7500    3.8971    0.0000 O   0  0  0  0  0  0  0  0  0  0  0  0
    3.0000    2.5981    0.0000 N   0  0  0  0  0  0  0  0  0  0  0  0
    3.7500    3.8971    0.0000 C   0  0  0  0  0  0  0  0  0  0  0  0
    5.1989    4.2853    0.0000 C   0  0  0  0  0  0  0  0  0  0  0  0
    4.8107    5.7342    0.0000 O   0  0  0  0  0  0  0  0  0  0  0  0
    3.3618    5.3460    0.0000 C   0  0  0  0  0  0  0  0  0  0  0  0
   -0.7500    1.2990    0.0000 C   0  0  0  0  0  0  0  0  0  0  0  0
   -1.5000    0.0000    0.0000 C   0  0  0  0  0  0  0  0  0  0  0  0
   -0.7500   -1.2990    0.0000 C   0  0  0  0  0  0  0  0  0  0  0  0
   -1.5000   -2.5981    0.0000 C   0  0  0  0  0  0  0  0  0  0  0  0
   -3.0000   -2.5981    0.0000 O   0  0  0  0  0  0  0  0  0  0  0  0
   -0.7500   -3.8971    0.0000 C   0  0  0  0  0  0  0  0  0  0  0  0
    0.7500   -3.8971    0.0000 C   0  0  0  0  0  0  0  0  0  0  0  0
    1.2135   -5.3237    0.0000 N   0  0  0  0  0  0  0  0  0  0  0  0
    0.0000   -6.2054    0.0000 C   0  0  0  0  0  0  0  0  0  0  0  0
   -0.1568   -7.6972    0.0000 C   0  0  0  0  0  0  0  0  0  0  0  0
   -1.5271   -8.3073    0.0000 C   0  0  0  0  0  0  0  0  0  0  0  0
   -1.6839   -9.7990    0.0000 C   0  0  0  0  0  0  0  0  0  0  0  0
   -1.8407  -11.2908    0.0000 N   0  0  0  0  0  0  0  0  0  0  0  0
   -2.7406   -7.4256    0.0000 C   0  0  0  0  0  0  0  0  0  0  0  0
   -2.5838   -5.9338    0.0000 C   0  0  0  0  0  0  0  0  0  0  0  0
   -1.2135   -5.3237    0.0000 C   0  0  0  0  0  0  0  0  0  0  0  0
  1  2  1  0
  2  3  1  0
  2  4  1  0
  4  5  2  0
  5  6  1  0
  6  7  1  0
  7  8  2  0
  7  9  1  0
  9 10  1  0
 10 11  1  0
 11 12  1  0
 12 13  1  0
  6 14  2  0
 14 15  1  0
 15 16  2  0
 16 17  1  0
 17 18  2  0
 17 19  1  0
 19 20  2  0
 20 21  1  0
 21 22  1  0
 22 23  2  0
 23 24  1  0
 24 25  1  0
 25 26  3  0
 24 27  2  0
 27 28  1  0
 28 29  2  0
 20  2  1  0
 29 22  1  0
 16  4  1  0
 29 19  1  0
 13 10  1  0
M  END
>  <Compound_ID>  (53) 
CHEMBL3901838

>  <Molecule Name>  (53) 
nan

>  <Molecular Weight>  (53) 
385.42

>  <AlogP>  (53) 
3.04

>  <Smiles>  (53) 
CC1(C)c2cc(C(=O)NC3COC3)ccc2C(=O)c2c1[nH]c1cc(C#N)ccc21

>  <Standard Type>  (53) 
IC50

>  <Standard Relation>  (53) 
'='

>  <Standard Units>  (53) 
nM

>  <Standard Value>  (53) 
23.09

>  <Assay ChEMBL ID>  (53) 
CHEMBL3887074

>  <Assay Description>  (53) 
Inhibition Assay: ALK-inhibiting activity was measured by following an activity of inhibiting phosphorylation by biotinylated peptide (EGPWLEEEEEAYGWMDF). For the detection of phosphorylation of the biotinylated peptide, time-resolved fluorescence measurement was performed using an anti-phosphorylated tyrosine antibody labeled with europium cryptate and streptavidin conjugated to XL665, i.e., an allophycocyanin derivative.

>  <BAO Format ID>  (53) 
BAO_0000357

>  <BAO Label>  (53) 
single protein format

>  <Assay Organism>  (53) 
Homo sapiens

>  <Target ChEMBL ID>  (53) 
CHEMBL4247

>  <Target Name>  (53) 
ALK tyrosine kinase receptor

>  <Target Organism>  (53) 
Homo sapiens

>  <Target Type>  (53) 
SINGLE PROTEIN

>  <Document ChEMBL ID>  (53) 
CHEMBL3886150

>  <Source Description>  (53) 
BindingDB Database

>  <Document Journal>  (53) 
nan

>  <Document Year>  (53) 
2015.0

>  <Active>  (53) 
1.0

>  <bits>  (53) 
<rdkit.DataStructs.cDataStructs.ExplicitBitVect object at 0x000002422F1E1D20>

>  <Group>  (53) 
G2

$$$$

     RDKit          2D

 37 41  0  0  0  0  0  0  0  0999 V2000
    3.7500   -1.2990    0.0000 C   0  0  0  0  0  0  0  0  0  0  0  0
    3.0000    0.0000    0.0000 O   0  0  0  0  0  0  0  0  0  0  0  0
    1.5000    0.0000    0.0000 C   0  0  0  0  0  0  0  0  0  0  0  0
    0.7500   -1.2990    0.0000 C   0  0  0  0  0  0  0  0  0  0  0  0
   -0.7500   -1.2990    0.0000 C   0  0  0  0  0  0  0  0  0  0  0  0
   -1.5000   -2.5981    0.0000 N   0  0  0  0  0  0  0  0  0  0  0  0
   -3.0000   -2.5981    0.0000 C   0  0  0  0  0  0  0  0  0  0  0  0
   -3.7500   -3.8971    0.0000 C   0  0  0  0  0  0  0  0  0  0  0  0
   -3.0000   -5.1962    0.0000 N   0  0  0  0  0  0  0  0  0  0  0  0
   -1.5000   -5.1962    0.0000 C   0  0  0  0  0  0  0  0  0  0  0  0
   -0.7500   -3.8971    0.0000 C   0  0  0  0  0  0  0  0  0  0  0  0
   -1.5000    0.0000    0.0000 C   0  0  0  0  0  0  0  0  0  0  0  0
   -0.7500    1.2990    0.0000 C   0  0  0  0  0  0  0  0  0  0  0  0
    0.7500    1.2990    0.0000 C   0  0  0  0  0  0  0  0  0  0  0  0
    1.5000    2.5981    0.0000 N   0  0  0  0  0  0  0  0  0  0  0  0
    3.0000    2.5981    0.0000 C   0  0  0  0  0  0  0  0  0  0  0  0
    3.7500    1.2990    0.0000 N   0  0  0  0  0  0  0  0  0  0  0  0
    5.2500    1.2990    0.0000 C   0  0  0  0  0  0  0  0  0  0  0  0
    6.0000    2.5981    0.0000 C   0  0  0  0  0  0  0  0  0  0  0  0
    7.5000    2.5981    0.0000 Cl  0  0  0  0  0  0  0  0  0  0  0  0
    5.2500    3.8971    0.0000 C   0  0  0  0  0  0  0  0  0  0  0  0
    6.0000    5.1962    0.0000 N   0  0  0  0  0  0  0  0  0  0  0  0
    5.2500    6.4952    0.0000 C   0  0  0  0  0  0  0  0  0  0  0  0
    6.0000    7.7942    0.0000 C   0  0  0  0  0  0  0  0  0  0  0  0
    5.2500    9.0933    0.0000 C   0  0  0  0  0  0  0  0  0  0  0  0
    3.7500    9.0933    0.0000 C   0  0  0  0  0  0  0  0  0  0  0  0
    3.0000   10.3923    0.0000 N   0  0  0  0  0  0  0  0  0  0  0  0
    3.7500   11.6913    0.0000 C   0  0  0  0  0  0  0  0  0  0  0  0
    3.0000   12.9904    0.0000 C   0  0  0  0  0  0  0  0  0  0  0  0
    1.5000   12.9904    0.0000 N   0  0  0  0  0  0  0  0  0  0  0  0
    0.7500   11.6913    0.0000 C   0  0  0  0  0  0  0  0  0  0  0  0
    1.5000   10.3923    0.0000 C   0  0  0  0  0  0  0  0  0  0  0  0
    3.0000    7.7942    0.0000 C   0  0  0  0  0  0  0  0  0  0  0  0
    3.7500    6.4952    0.0000 C   0  0  0  0  0  0  0  0  0  0  0  0
    3.0000    5.1962    0.0000 O   0  0  0  0  0  0  0  0  0  0  0  0
    1.5000    5.1962    0.0000 C   0  0  0  0  0  0  0  0  0  0  0  0
    3.7500    3.8971    0.0000 N   0  0  0  0  0  0  0  0  0  0  0  0
  1  2  1  0
  2  3  1  0
  3  4  2  0
  4  5  1  0
  5  6  1  0
  6  7  1  0
  7  8  1  0
  8  9  1  0
  9 10  1  0
 10 11  1  0
  5 12  2  0
 12 13  1  0
 13 14  2  0
 14 15  1  0
 15 16  1  0
 16 17  2  0
 17 18  1  0
 18 19  2  0
 19 20  1  0
 19 21  1  0
 21 22  1  0
 22 23  1  0
 23 24  2  0
 24 25  1  0
 25 26  2  0
 26 27  1  0
 27 28  1  0
 28 29  1  0
 29 30  1  0
 30 31  1  0
 31 32  1  0
 26 33  1  0
 33 34  2  0
 34 35  1  0
 35 36  1  0
 21 37  2  0
 14  3  1  0
 37 16  1  0
 11  6  1  0
 34 23  1  0
 32 27  1  0
M  END
>  <Compound_ID>  (54) 
CHEMBL3920829

>  <Molecule Name>  (54) 
nan

>  <Molecular Weight>  (54) 
525.06

>  <AlogP>  (54) 
3.45

>  <Smiles>  (54) 
COc1cc(N2CCNCC2)ccc1Nc1ncc(Cl)c(Nc2ccc(N3CCNCC3)cc2OC)n1

>  <Standard Type>  (54) 
IC50

>  <Standard Relation>  (54) 
'='

>  <Standard Units>  (54) 
nM

>  <Standard Value>  (54) 
4.0

>  <Assay ChEMBL ID>  (54) 
CHEMBL3887133

>  <Assay Description>  (54) 
Homogeneous Time-resolved fluorescence (HTRF) Assay: In order to measure the inhibitory activity against ALK, a Grainer 96-well round type bottom plate was added with the compounds (2 μl) prepared in Examples 1 to 89, and mixed with ALK enzyme (1 ul) and a peptide substrate (2 μl) with biotin attached thereto for 15 minutes and cultured thereafter. Here, ATP solution (5 μl) was added thereto and kinase reaction was performed at room temperature for 30 minutes. XL 665 (5 μl), to which Streptavidin dissolved in ethylenediaminetetraacetic acid solution was attached, anti-phosphotyrosine antibody (5 μl), to which europium (Eu3+) was attached, were added to a reaction solution to stop the reaction, cultured for 1 hour, and analyzed using Homogeneous Time-resolved fluorescence (HTRF, Cisbio). The result was read by a Wallac Envision 2103 device at the wavelength range of 615/665 nm.

>  <BAO Format ID>  (54) 
BAO_0000357

>  <BAO Label>  (54) 
single protein format

>  <Assay Organism>  (54) 
None

>  <Target ChEMBL ID>  (54) 
CHEMBL4247

>  <Target Name>  (54) 
ALK tyrosine kinase receptor

>  <Target Organism>  (54) 
Homo sapiens

>  <Target Type>  (54) 
SINGLE PROTEIN

>  <Document ChEMBL ID>  (54) 
CHEMBL3886178

>  <Source Description>  (54) 
BindingDB Database

>  <Document Journal>  (54) 
nan

>  <Document Year>  (54) 
2015.0

>  <Active>  (54) 
1.0

>  <bits>  (54) 
<rdkit.DataStructs.cDataStructs.ExplicitBitVect object at 0x000002422F1E3B50>

>  <Group>  (54) 
G2

$$$$

     RDKit          2D

 33 37  0  0  0  0  0  0  0  0999 V2000
    1.6431  -12.8296    0.0000 C   0  0  0  0  0  0  0  0  0  0  0  0
    0.4296  -11.9479    0.0000 N   0  0  0  0  0  0  0  0  0  0  0  0
   -0.9408  -12.5580    0.0000 C   0  0  0  0  0  0  0  0  0  0  0  0
   -2.1543  -11.6763    0.0000 C   0  0  0  0  0  0  0  0  0  0  0  0
   -1.9975  -10.1845    0.0000 C   0  0  0  0  0  0  0  0  0  0  0  0
   -3.2110   -9.3029    0.0000 O   0  0  0  0  0  0  0  0  0  0  0  0
   -3.0542   -7.8111    0.0000 C   0  0  0  0  0  0  0  0  0  0  0  0
   -1.6839   -7.2010    0.0000 C   0  0  0  0  0  0  0  0  0  0  0  0
   -1.5271   -5.7092    0.0000 C   0  0  0  0  0  0  0  0  0  0  0  0
   -2.7406   -4.8275    0.0000 C   0  0  0  0  0  0  0  0  0  0  0  0
   -4.1110   -5.4376    0.0000 C   0  0  0  0  0  0  0  0  0  0  0  0
   -4.2677   -6.9294    0.0000 C   0  0  0  0  0  0  0  0  0  0  0  0
   -5.6381   -7.5395    0.0000 N   0  0  0  0  0  4  0  0  0  0  0  0
   -5.7949   -9.0313    0.0000 O   0  0  0  0  0  0  0  0  0  0  0  0
   -6.8516   -6.6578    0.0000 O   0  0  0  0  0  1  0  0  0  0  0  0
   -2.5838   -3.3357    0.0000 C   0  0  0  0  0  0  0  0  0  0  0  0
   -3.7974   -2.4540    0.0000 O   0  0  0  0  0  0  0  0  0  0  0  0
   -1.2135   -2.7256    0.0000 C   0  0  0  0  0  0  0  0  0  0  0  0
   -0.0000   -3.6073    0.0000 C   0  0  0  0  0  0  0  0  0  0  0  0
    1.2135   -2.7256    0.0000 N   0  0  0  0  0  0  0  0  0  0  0  0
    0.7500   -1.2990    0.0000 C   0  0  0  0  0  0  0  0  0  0  0  0
    1.5000    0.0000    0.0000 C   0  0  0  0  0  0  0  0  0  0  0  0
    0.7500    1.2990    0.0000 C   0  0  0  0  0  0  0  0  0  0  0  0
    1.5000    2.5981    0.0000 C   0  0  0  0  0  0  0  0  0  0  0  0
    2.2500    3.8971    0.0000 N   0  0  0  0  0  0  0  0  0  0  0  0
   -0.7500    1.2990    0.0000 C   0  0  0  0  0  0  0  0  0  0  0  0
   -1.5000    0.0000    0.0000 C   0  0  0  0  0  0  0  0  0  0  0  0
   -0.7500   -1.2990    0.0000 C   0  0  0  0  0  0  0  0  0  0  0  0
   -0.1568   -5.0991    0.0000 C   0  0  0  0  0  0  0  0  0  0  0  0
    0.2061   -6.5545    0.0000 C   0  0  0  0  0  0  0  0  0  0  0  0
    1.3396   -4.9944    0.0000 C   0  0  0  0  0  0  0  0  0  0  0  0
   -0.6272   -9.5744    0.0000 C   0  0  0  0  0  0  0  0  0  0  0  0
    0.5864  -10.4561    0.0000 C   0  0  0  0  0  0  0  0  0  0  0  0
  1  2  1  0
  2  3  1  0
  3  4  1  0
  4  5  1  0
  5  6  1  0
  6  7  1  0
  7  8  2  0
  8  9  1  0
  9 10  2  0
 10 11  1  0
 11 12  2  0
 12 13  1  0
 13 14  2  0
 13 15  1  0
 10 16  1  0
 16 17  2  0
 16 18  1  0
 18 19  2  0
 19 20  1  0
 20 21  1  0
 21 22  2  0
 22 23  1  0
 23 24  1  0
 24 25  3  0
 23 26  2  0
 26 27  1  0
 27 28  2  0
 19 29  1  0
 29 30  1  0
 29 31  1  0
  5 32  1  0
 32 33  1  0
 33  2  1  0
 12  7  1  0
 28 18  1  0
 29  9  1  0
 28 21  1  0
M  CHG  2  13   1  15  -1
M  END
>  <Compound_ID>  (55) 
CHEMBL3986775

>  <Molecule Name>  (55) 
nan

>  <Molecular Weight>  (55) 
444.49

>  <AlogP>  (55) 
4.29

>  <Smiles>  (55) 
CN1CCC(Oc2cc3c(cc2[N+](=O)[O-])C(=O)c2c([nH]c4cc(C#N)ccc24)C3(C)C)CC1

>  <Standard Type>  (55) 
IC50

>  <Standard Relation>  (55) 
'='

>  <Standard Units>  (55) 
nM

>  <Standard Value>  (55) 
0.991

>  <Assay ChEMBL ID>  (55) 
CHEMBL3887074

>  <Assay Description>  (55) 
Inhibition Assay: ALK-inhibiting activity was measured by following an activity of inhibiting phosphorylation by biotinylated peptide (EGPWLEEEEEAYGWMDF). For the detection of phosphorylation of the biotinylated peptide, time-resolved fluorescence measurement was performed using an anti-phosphorylated tyrosine antibody labeled with europium cryptate and streptavidin conjugated to XL665, i.e., an allophycocyanin derivative.

>  <BAO Format ID>  (55) 
BAO_0000357

>  <BAO Label>  (55) 
single protein format

>  <Assay Organism>  (55) 
Homo sapiens

>  <Target ChEMBL ID>  (55) 
CHEMBL4247

>  <Target Name>  (55) 
ALK tyrosine kinase receptor

>  <Target Organism>  (55) 
Homo sapiens

>  <Target Type>  (55) 
SINGLE PROTEIN

>  <Document ChEMBL ID>  (55) 
CHEMBL3886150

>  <Source Description>  (55) 
BindingDB Database

>  <Document Journal>  (55) 
nan

>  <Document Year>  (55) 
2015.0

>  <Active>  (55) 
1.0

>  <bits>  (55) 
<rdkit.DataStructs.cDataStructs.ExplicitBitVect object at 0x000002422F1E3A70>

>  <Group>  (55) 
G2

$$$$

     RDKit          2D

 34 39  0  0  0  0  0  0  0  0999 V2000
   -7.0084   -8.1496    0.0000 C   0  0  0  0  0  0  0  0  0  0  0  0
   -5.6381   -7.5395    0.0000 C   0  0  0  0  0  0  0  0  0  0  0  0
   -4.2677   -6.9294    0.0000 C   0  0  0  0  0  0  0  0  0  0  0  0
   -4.1110   -5.4376    0.0000 C   0  0  0  0  0  0  0  0  0  0  0  0
   -2.7406   -4.8275    0.0000 C   0  0  0  0  0  0  0  0  0  0  0  0
   -1.5271   -5.7092    0.0000 C   0  0  0  0  0  0  0  0  0  0  0  0
   -1.6839   -7.2010    0.0000 C   0  0  0  0  0  0  0  0  0  0  0  0
   -3.0542   -7.8111    0.0000 C   0  0  0  0  0  0  0  0  0  0  0  0
   -3.2110   -9.3029    0.0000 N   0  0  0  0  0  0  0  0  0  0  0  0
   -4.5813   -9.9130    0.0000 C   0  0  0  0  0  0  0  0  0  0  0  0
   -4.7381  -11.4047    0.0000 C   0  0  0  0  0  0  0  0  0  0  0  0
   -3.5246  -12.2864    0.0000 N   0  0  0  0  0  0  0  0  0  0  0  0
   -3.6814  -13.7782    0.0000 C   0  0  0  0  0  0  0  0  0  0  0  0
   -4.8471  -14.7222    0.0000 C   0  0  0  0  0  0  0  0  0  0  0  0
   -3.9031  -15.8879    0.0000 O   0  0  0  0  0  0  0  0  0  0  0  0
   -2.7374  -14.9439    0.0000 C   0  0  0  0  0  0  0  0  0  0  0  0
   -2.1543  -11.6763    0.0000 C   0  0  0  0  0  0  0  0  0  0  0  0
   -1.9975  -10.1845    0.0000 C   0  0  0  0  0  0  0  0  0  0  0  0
   -0.1568   -5.0991    0.0000 C   0  0  0  0  0  0  0  0  0  0  0  0
    1.3396   -4.9944    0.0000 C   0  0  0  0  0  0  0  0  0  0  0  0
    0.2061   -6.5545    0.0000 C   0  0  0  0  0  0  0  0  0  0  0  0
   -0.0000   -3.6073    0.0000 C   0  0  0  0  0  0  0  0  0  0  0  0
    1.2135   -2.7256    0.0000 N   0  0  0  0  0  0  0  0  0  0  0  0
    0.7500   -1.2990    0.0000 C   0  0  0  0  0  0  0  0  0  0  0  0
    1.5000    0.0000    0.0000 C   0  0  0  0  0  0  0  0  0  0  0  0
    0.7500    1.2990    0.0000 C   0  0  0  0  0  0  0  0  0  0  0  0
    1.5000    2.5981    0.0000 C   0  0  0  0  0  0  0  0  0  0  0  0
    2.2500    3.8971    0.0000 N   0  0  0  0  0  0  0  0  0  0  0  0
   -0.7500    1.2990    0.0000 C   0  0  0  0  0  0  0  0  0  0  0  0
   -1.5000    0.0000    0.0000 C   0  0  0  0  0  0  0  0  0  0  0  0
   -0.7500   -1.2990    0.0000 C   0  0  0  0  0  0  0  0  0  0  0  0
   -1.2135   -2.7256    0.0000 C   0  0  0  0  0  0  0  0  0  0  0  0
   -2.5838   -3.3357    0.0000 C   0  0  0  0  0  0  0  0  0  0  0  0
   -3.7974   -2.4540    0.0000 O   0  0  0  0  0  0  0  0  0  0  0  0
  1  2  3  0
  2  3  1  0
  3  4  2  0
  4  5  1  0
  5  6  2  0
  6  7  1  0
  7  8  2  0
  8  9  1  0
  9 10  1  0
 10 11  1  0
 11 12  1  0
 12 13  1  0
 13 14  1  0
 14 15  1  0
 15 16  1  0
 12 17  1  0
 17 18  1  0
  6 19  1  0
 19 20  1  0
 19 21  1  0
 19 22  1  0
 22 23  1  0
 23 24  1  0
 24 25  2  0
 25 26  1  0
 26 27  1  0
 27 28  3  0
 26 29  2  0
 29 30  1  0
 30 31  2  0
 31 32  1  0
 32 33  1  0
 33 34  2  0
  8  3  1  0
 18  9  1  0
 32 22  2  0
 33  5  1  0
 16 13  1  0
 31 24  1  0
M  END
>  <Compound_ID>  (56) 
CHEMBL1823220

>  <Molecule Name>  (56) 
nan

>  <Molecular Weight>  (56) 
450.54

>  <AlogP>  (56) 
3.41

>  <Smiles>  (56) 
C#Cc1cc2c(cc1N1CCN(C3COC3)CC1)C(C)(C)c1[nH]c3cc(C#N)ccc3c1C2=O

>  <Standard Type>  (56) 
IC50

>  <Standard Relation>  (56) 
'='

>  <Standard Units>  (56) 
nM

>  <Standard Value>  (56) 
2.7

>  <Assay ChEMBL ID>  (56) 
CHEMBL1828297

>  <Assay Description>  (56) 
Inhibition of ALK activity by TR-FRET assay

>  <BAO Format ID>  (56) 
BAO_0000357

>  <BAO Label>  (56) 
single protein format

>  <Assay Organism>  (56) 
None

>  <Target ChEMBL ID>  (56) 
CHEMBL4247

>  <Target Name>  (56) 
ALK tyrosine kinase receptor

>  <Target Organism>  (56) 
Homo sapiens

>  <Target Type>  (56) 
SINGLE PROTEIN

>  <Document ChEMBL ID>  (56) 
CHEMBL1821705

>  <Source Description>  (56) 
Scientific Literature

>  <Document Journal>  (56) 
J Med Chem

>  <Document Year>  (56) 
2011.0

>  <Active>  (56) 
1.0

>  <bits>  (56) 
<rdkit.DataStructs.cDataStructs.ExplicitBitVect object at 0x000002422F1E3680>

>  <Group>  (56) 
G2

$$$$

     RDKit          2D

 35 38  0  0  0  0  0  0  0  0999 V2000
    6.4627    1.8535    0.0000 C   0  0  0  0  0  0  0  0  0  0  0  0
    5.9147    3.2498    0.0000 O   0  0  0  0  0  0  0  0  0  0  0  0
    4.4315    3.4734    0.0000 C   0  0  0  0  0  0  0  0  0  0  0  0
    3.4962    2.3006    0.0000 C   0  0  0  0  0  0  0  0  0  0  0  0
    2.0130    2.5242    0.0000 C   0  0  0  0  0  0  0  0  0  0  0  0
    1.0777    1.3515    0.0000 N   0  0  0  0  0  0  0  0  0  0  0  0
    1.7286    0.0000    0.0000 C   0  0  0  0  0  0  0  0  0  0  0  0
    1.0777   -1.3515    0.0000 C   0  0  0  0  0  0  0  0  0  0  0  0
   -0.3846   -1.6852    0.0000 C   0  0  0  0  0  0  0  0  0  0  0  0
   -1.5574   -0.7500    0.0000 N   0  0  0  0  0  0  0  0  0  0  0  0
   -2.9088   -1.4008    0.0000 C   0  0  0  0  0  0  0  0  0  0  0  0
   -1.5574    0.7500    0.0000 C   0  0  0  0  0  0  0  0  0  0  0  0
   -0.3846    1.6852    0.0000 C   0  0  0  0  0  0  0  0  0  0  0  0
    1.4650    3.9205    0.0000 C   0  0  0  0  0  0  0  0  0  0  0  0
    2.4002    5.0933    0.0000 C   0  0  0  0  0  0  0  0  0  0  0  0
    3.8835    4.8697    0.0000 C   0  0  0  0  0  0  0  0  0  0  0  0
    4.8187    6.0424    0.0000 N   0  0  0  0  0  0  0  0  0  0  0  0
    4.2707    7.4388    0.0000 C   0  0  0  0  0  0  0  0  0  0  0  0
    5.2059    8.6115    0.0000 N   0  0  0  0  0  0  0  0  0  0  0  0
    4.6579   10.0078    0.0000 C   0  0  0  0  0  0  0  0  0  0  0  0
    3.1747   10.2314    0.0000 C   0  0  0  0  0  0  0  0  0  0  0  0
    2.6266   11.6277    0.0000 Cl  0  0  0  0  0  0  0  0  0  0  0  0
    2.2394    9.0586    0.0000 C   0  0  0  0  0  0  0  0  0  0  0  0
    0.7562    9.2822    0.0000 N   0  0  0  0  0  0  0  0  0  0  0  0
   -0.1791    8.1094    0.0000 C   0  0  0  0  0  0  0  0  0  0  0  0
    0.3689    6.7131    0.0000 C   0  0  0  0  0  0  0  0  0  0  0  0
   -0.5663    5.5404    0.0000 C   0  0  0  0  0  0  0  0  0  0  0  0
   -2.0495    5.7639    0.0000 C   0  0  0  0  0  0  0  0  0  0  0  0
   -2.5975    7.1603    0.0000 C   0  0  0  0  0  0  0  0  0  0  0  0
   -1.6623    8.3330    0.0000 C   0  0  0  0  0  0  0  0  0  0  0  0
   -2.2103    9.7293    0.0000 P   0  0  0  0  0  0  0  0  0  0  0  0
   -0.8140   10.2773    0.0000 C   0  0  0  0  0  0  0  0  0  0  0  0
   -3.6066    9.1813    0.0000 C   0  0  0  0  0  0  0  0  0  0  0  0
   -2.7583   11.1256    0.0000 O   0  0  0  0  0  0  0  0  0  0  0  0
    2.7874    7.6623    0.0000 N   0  0  0  0  0  0  0  0  0  0  0  0
  1  2  1  0
  2  3  1  0
  3  4  2  0
  4  5  1  0
  5  6  1  0
  6  7  1  0
  7  8  1  0
  8  9  1  0
  9 10  1  0
 10 11  1  0
 10 12  1  0
 12 13  1  0
  5 14  2  0
 14 15  1  0
 15 16  2  0
 16 17  1  0
 17 18  1  0
 18 19  2  0
 19 20  1  0
 20 21  2  0
 21 22  1  0
 21 23  1  0
 23 24  1  0
 24 25  1  0
 25 26  2  0
 26 27  1  0
 27 28  2  0
 28 29  1  0
 29 30  2  0
 30 31  1  0
 31 32  1  0
 31 33  1  0
 31 34  2  0
 23 35  2  0
 16  3  1  0
 35 18  1  0
 13  6  1  0
 30 25  1  0
M  END
>  <Compound_ID>  (57) 
CHEMBL3824130

>  <Molecule Name>  (57) 
nan

>  <Molecular Weight>  (57) 
515.0

>  <AlogP>  (57) 
5.02

>  <Smiles>  (57) 
COc1cc(N2CCCN(C)CC2)ccc1Nc1ncc(Cl)c(Nc2ccccc2P(C)(C)=O)n1

>  <Standard Type>  (57) 
IC50

>  <Standard Relation>  (57) 
'='

>  <Standard Units>  (57) 
nM

>  <Standard Value>  (57) 
0.72

>  <Assay ChEMBL ID>  (57) 
CHEMBL3824709

>  <Assay Description>  (57) 
Inhibition of human ALK using poly[Glu:Tyr] (4:1) as substrate and [gamma-33P]ATP measured after 1 hr

>  <BAO Format ID>  (57) 
BAO_0000357

>  <BAO Label>  (57) 
single protein format

>  <Assay Organism>  (57) 
Homo sapiens

>  <Target ChEMBL ID>  (57) 
CHEMBL4247

>  <Target Name>  (57) 
ALK tyrosine kinase receptor

>  <Target Organism>  (57) 
Homo sapiens

>  <Target Type>  (57) 
SINGLE PROTEIN

>  <Document ChEMBL ID>  (57) 
CHEMBL3822358

>  <Source Description>  (57) 
Scientific Literature

>  <Document Journal>  (57) 
J Med Chem

>  <Document Year>  (57) 
2016.0

>  <Active>  (57) 
1.0

>  <bits>  (57) 
<rdkit.DataStructs.cDataStructs.ExplicitBitVect object at 0x000002422F1E3220>

>  <Group>  (57) 
G2

$$$$

     RDKit          2D

 42 46  0  0  0  0  0  0  0  0999 V2000
    5.2500   -1.2990    0.0000 C   0  0  0  0  0  0  0  0  0  0  0  0
    3.7500   -1.2990    0.0000 C   0  0  0  0  0  0  0  0  0  0  0  0
    3.0000   -2.5981    0.0000 C   0  0  0  0  0  0  0  0  0  0  0  0
    3.0000    0.0000    0.0000 O   0  0  0  0  0  0  0  0  0  0  0  0
    1.5000    0.0000    0.0000 C   0  0  0  0  0  0  0  0  0  0  0  0
    0.7500   -1.2990    0.0000 C   0  0  0  0  0  0  0  0  0  0  0  0
   -0.7500   -1.2990    0.0000 C   0  0  0  0  0  0  0  0  0  0  0  0
   -1.5000   -2.5981    0.0000 N   0  0  0  0  0  0  0  0  0  0  0  0
   -3.0000   -2.5981    0.0000 C   0  0  0  0  0  0  0  0  0  0  0  0
   -3.7500   -3.8971    0.0000 C   0  0  0  0  0  0  0  0  0  0  0  0
   -3.0000   -5.1962    0.0000 C   0  0  0  0  0  0  0  0  0  0  0  0
   -3.7500   -6.4952    0.0000 N   0  0  0  0  0  0  0  0  0  0  0  0
   -5.2500   -6.4952    0.0000 C   0  0  0  0  0  0  0  0  0  0  0  0
   -6.0000   -7.7942    0.0000 C   0  0  0  0  0  0  0  0  0  0  0  0
   -5.2500   -9.0933    0.0000 N   0  0  0  0  0  0  0  0  0  0  0  0
   -6.0000  -10.3923    0.0000 C   0  0  0  0  0  0  0  0  0  0  0  0
   -3.7500   -9.0933    0.0000 C   0  0  0  0  0  0  0  0  0  0  0  0
   -3.0000   -7.7942    0.0000 C   0  0  0  0  0  0  0  0  0  0  0  0
   -1.5000   -5.1962    0.0000 C   0  0  0  0  0  0  0  0  0  0  0  0
   -0.7500   -3.8971    0.0000 C   0  0  0  0  0  0  0  0  0  0  0  0
   -1.5000    0.0000    0.0000 C   0  0  0  0  0  0  0  0  0  0  0  0
   -0.7500    1.2990    0.0000 C   0  0  0  0  0  0  0  0  0  0  0  0
    0.7500    1.2990    0.0000 C   0  0  0  0  0  0  0  0  0  0  0  0
    1.5000    2.5981    0.0000 N   0  0  0  0  0  0  0  0  0  0  0  0
    3.0000    2.5981    0.0000 C   0  0  0  0  0  0  0  0  0  0  0  0
    3.7500    1.2990    0.0000 N   0  0  0  0  0  0  0  0  0  0  0  0
    5.2500    1.2990    0.0000 C   0  0  0  0  0  0  0  0  0  0  0  0
    6.0000    2.5981    0.0000 C   0  0  0  0  0  0  0  0  0  0  0  0
    7.5000    2.5981    0.0000 Cl  0  0  0  0  0  0  0  0  0  0  0  0
    5.2500    3.8971    0.0000 C   0  0  0  0  0  0  0  0  0  0  0  0
    6.0000    5.1962    0.0000 N   0  0  0  0  0  0  0  0  0  0  0  0
    5.2500    6.4952    0.0000 C   0  0  0  0  0  0  0  0  0  0  0  0
    3.7500    6.4952    0.0000 C   0  0  0  0  0  0  0  0  0  0  0  0
    3.0000    7.7942    0.0000 C   0  0  0  0  0  0  0  0  0  0  0  0
    3.7500    9.0933    0.0000 C   0  0  0  0  0  0  0  0  0  0  0  0
    5.2500    9.0933    0.0000 C   0  0  0  0  0  0  0  0  0  0  0  0
    6.0000    7.7942    0.0000 C   0  0  0  0  0  0  0  0  0  0  0  0
    7.5000    7.7942    0.0000 P   0  0  0  0  0  0  0  0  0  0  0  0
    7.5000    6.2942    0.0000 C   0  0  0  0  0  0  0  0  0  0  0  0
    7.5000    9.2942    0.0000 C   0  0  0  0  0  0  0  0  0  0  0  0
    9.0000    7.7942    0.0000 O   0  0  0  0  0  0  0  0  0  0  0  0
    3.7500    3.8971    0.0000 N   0  0  0  0  0  0  0  0  0  0  0  0
  1  2  1  0
  2  3  1  0
  2  4  1  0
  4  5  1  0
  5  6  2  0
  6  7  1  0
  7  8  1  0
  8  9  1  0
  9 10  1  0
 10 11  1  0
 11 12  1  0
 12 13  1  0
 13 14  1  0
 14 15  1  0
 15 16  1  0
 15 17  1  0
 17 18  1  0
 11 19  1  0
 19 20  1  0
  7 21  2  0
 21 22  1  0
 22 23  2  0
 23 24  1  0
 24 25  1  0
 25 26  2  0
 26 27  1  0
 27 28  2  0
 28 29  1  0
 28 30  1  0
 30 31  1  0
 31 32  1  0
 32 33  2  0
 33 34  1  0
 34 35  2  0
 35 36  1  0
 36 37  2  0
 37 38  1  0
 38 39  1  0
 38 40  1  0
 38 41  2  0
 30 42  2  0
 23  5  1  0
 42 25  1  0
 20  8  1  0
 37 32  1  0
 18 12  1  0
M  END
>  <Compound_ID>  (58) 
CHEMBL3823224

>  <Molecule Name>  (58) 
nan

>  <Molecular Weight>  (58) 
612.16

>  <AlogP>  (58) 
5.87

>  <Smiles>  (58) 
CC(C)Oc1cc(N2CCC(N3CCN(C)CC3)CC2)ccc1Nc1ncc(Cl)c(Nc2ccccc2P(C)(C)=O)n1

>  <Standard Type>  (58) 
IC50

>  <Standard Relation>  (58) 
'='

>  <Standard Units>  (58) 
nM

>  <Standard Value>  (58) 
0.68

>  <Assay ChEMBL ID>  (58) 
CHEMBL3824709

>  <Assay Description>  (58) 
Inhibition of human ALK using poly[Glu:Tyr] (4:1) as substrate and [gamma-33P]ATP measured after 1 hr

>  <BAO Format ID>  (58) 
BAO_0000357

>  <BAO Label>  (58) 
single protein format

>  <Assay Organism>  (58) 
Homo sapiens

>  <Target ChEMBL ID>  (58) 
CHEMBL4247

>  <Target Name>  (58) 
ALK tyrosine kinase receptor

>  <Target Organism>  (58) 
Homo sapiens

>  <Target Type>  (58) 
SINGLE PROTEIN

>  <Document ChEMBL ID>  (58) 
CHEMBL3822358

>  <Source Description>  (58) 
Scientific Literature

>  <Document Journal>  (58) 
J Med Chem

>  <Document Year>  (58) 
2016.0

>  <Active>  (58) 
1.0

>  <bits>  (58) 
<rdkit.DataStructs.cDataStructs.ExplicitBitVect object at 0x000002422F1E3060>

>  <Group>  (58) 
G2

$$$$

     RDKit          2D

 38 41  0  0  0  0  0  0  0  0999 V2000
    6.0000   -2.5981    0.0000 C   0  0  0  0  0  0  0  0  0  0  0  0
    5.2500   -1.2990    0.0000 N   0  0  0  0  0  0  0  0  0  0  0  0
    3.7500   -1.2990    0.0000 C   0  0  0  0  0  0  0  0  0  0  0  0
    3.0000   -2.5981    0.0000 O   0  0  0  0  0  0  0  0  0  0  0  0
    3.0000    0.0000    0.0000 C   0  0  0  0  0  0  0  0  0  0  0  0
    1.5000    0.0000    0.0000 N   0  0  0  0  0  0  0  0  0  0  0  0
    0.7500   -1.2990    0.0000 C   0  0  0  0  0  0  0  0  0  0  0  0
   -0.7500   -1.2990    0.0000 C   0  0  0  0  0  0  0  0  0  0  0  0
   -1.5000    0.0000    0.0000 N   0  0  0  0  0  0  0  0  0  0  0  0
   -3.0000    0.0000    0.0000 C   0  0  0  0  0  0  0  0  0  0  0  0
   -3.7500    1.2990    0.0000 C   0  0  0  0  0  0  0  0  0  0  0  0
   -5.2500    1.2990    0.0000 C   0  0  0  0  0  0  0  0  0  0  0  0
   -6.0000    0.0000    0.0000 C   0  0  0  0  0  0  0  0  0  0  0  0
   -7.5000    0.0000    0.0000 N   0  0  0  0  0  0  0  0  0  0  0  0
   -8.2500    1.2990    0.0000 C   0  0  0  0  0  0  0  0  0  0  0  0
   -7.5000    2.5981    0.0000 N   0  0  0  0  0  0  0  0  0  0  0  0
   -8.2500    3.8971    0.0000 C   0  0  0  0  0  0  0  0  0  0  0  0
   -9.7500    3.8971    0.0000 C   0  0  0  0  0  0  0  0  0  0  0  0
  -10.5000    5.1962    0.0000 Cl  0  0  0  0  0  0  0  0  0  0  0  0
  -10.5000    2.5981    0.0000 C   0  0  0  0  0  0  0  0  0  0  0  0
  -12.0000    2.5981    0.0000 N   0  0  0  0  0  0  0  0  0  0  0  0
  -12.7500    1.2990    0.0000 C   0  0  0  0  0  0  0  0  0  0  0  0
  -12.0000   -0.0000    0.0000 C   0  0  0  0  0  0  0  0  0  0  0  0
  -12.7500   -1.2990    0.0000 C   0  0  0  0  0  0  0  0  0  0  0  0
  -14.2500   -1.2990    0.0000 C   0  0  0  0  0  0  0  0  0  0  0  0
  -15.0000   -0.0000    0.0000 C   0  0  0  0  0  0  0  0  0  0  0  0
  -14.2500    1.2990    0.0000 C   0  0  0  0  0  0  0  0  0  0  0  0
  -15.0000    2.5981    0.0000 P   0  0  0  0  0  0  0  0  0  0  0  0
  -13.7010    3.3481    0.0000 C   0  0  0  0  0  0  0  0  0  0  0  0
  -16.2990    1.8481    0.0000 C   0  0  0  0  0  0  0  0  0  0  0  0
  -15.7500    3.8971    0.0000 O   0  0  0  0  0  0  0  0  0  0  0  0
   -9.7500    1.2990    0.0000 N   0  0  0  0  0  0  0  0  0  0  0  0
   -5.2500   -1.2990    0.0000 C   0  0  0  0  0  0  0  0  0  0  0  0
   -6.0000   -2.5981    0.0000 O   0  0  0  0  0  0  0  0  0  0  0  0
   -5.2500   -3.8971    0.0000 C   0  0  0  0  0  0  0  0  0  0  0  0
   -3.7500   -1.2990    0.0000 C   0  0  0  0  0  0  0  0  0  0  0  0
   -0.7500    1.2990    0.0000 C   0  0  0  0  0  0  0  0  0  0  0  0
    0.7500    1.2990    0.0000 C   0  0  0  0  0  0  0  0  0  0  0  0
  1  2  1  0
  2  3  1  0
  3  4  2  0
  3  5  1  0
  5  6  1  0
  6  7  1  0
  7  8  1  0
  8  9  1  0
  9 10  1  0
 10 11  2  0
 11 12  1  0
 12 13  2  0
 13 14  1  0
 14 15  1  0
 15 16  2  0
 16 17  1  0
 17 18  2  0
 18 19  1  0
 18 20  1  0
 20 21  1  0
 21 22  1  0
 22 23  2  0
 23 24  1  0
 24 25  2  0
 25 26  1  0
 26 27  2  0
 27 28  1  0
 28 29  1  0
 28 30  1  0
 28 31  2  0
 20 32  2  0
 13 33  1  0
 33 34  1  0
 34 35  1  0
 33 36  2  0
  9 37  1  0
 37 38  1  0
 38  6  1  0
 36 10  1  0
 32 15  1  0
 27 22  1  0
M  END
>  <Compound_ID>  (59) 
CHEMBL3823872

>  <Molecule Name>  (59) 
nan

>  <Molecular Weight>  (59) 
558.02

>  <AlogP>  (59) 
3.74

>  <Smiles>  (59) 
CNC(=O)CN1CCN(c2ccc(Nc3ncc(Cl)c(Nc4ccccc4P(C)(C)=O)n3)c(OC)c2)CC1

>  <Standard Type>  (59) 
IC50

>  <Standard Relation>  (59) 
'='

>  <Standard Units>  (59) 
nM

>  <Standard Value>  (59) 
3.1

>  <Assay ChEMBL ID>  (59) 
CHEMBL3824709

>  <Assay Description>  (59) 
Inhibition of human ALK using poly[Glu:Tyr] (4:1) as substrate and [gamma-33P]ATP measured after 1 hr

>  <BAO Format ID>  (59) 
BAO_0000357

>  <BAO Label>  (59) 
single protein format

>  <Assay Organism>  (59) 
Homo sapiens

>  <Target ChEMBL ID>  (59) 
CHEMBL4247

>  <Target Name>  (59) 
ALK tyrosine kinase receptor

>  <Target Organism>  (59) 
Homo sapiens

>  <Target Type>  (59) 
SINGLE PROTEIN

>  <Document ChEMBL ID>  (59) 
CHEMBL3822358

>  <Source Description>  (59) 
Scientific Literature

>  <Document Journal>  (59) 
J Med Chem

>  <Document Year>  (59) 
2016.0

>  <Active>  (59) 
1.0

>  <bits>  (59) 
<rdkit.DataStructs.cDataStructs.ExplicitBitVect object at 0x000002422F1E22D0>

>  <Group>  (59) 
G2

$$$$

     RDKit          2D

 31 33  0  0  0  0  0  0  0  0999 V2000
    3.7500   -1.2990    0.0000 C   0  0  0  0  0  0  0  0  0  0  0  0
    3.0000    0.0000    0.0000 O   0  0  0  0  0  0  0  0  0  0  0  0
    1.5000    0.0000    0.0000 C   0  0  0  0  0  0  0  0  0  0  0  0
    0.7500   -1.2990    0.0000 C   0  0  0  0  0  0  0  0  0  0  0  0
   -0.7500   -1.2990    0.0000 C   0  0  0  0  0  0  0  0  0  0  0  0
   -1.5000   -2.5981    0.0000 P   0  0  0  0  0  0  0  0  0  0  0  0
   -0.2010   -3.3481    0.0000 C   0  0  0  0  0  0  0  0  0  0  0  0
   -2.7990   -1.8481    0.0000 C   0  0  0  0  0  0  0  0  0  0  0  0
   -2.2500   -3.8971    0.0000 O   0  0  0  0  0  0  0  0  0  0  0  0
   -1.5000    0.0000    0.0000 C   0  0  0  0  0  0  0  0  0  0  0  0
   -0.7500    1.2990    0.0000 C   0  0  0  0  0  0  0  0  0  0  0  0
    0.7500    1.2990    0.0000 C   0  0  0  0  0  0  0  0  0  0  0  0
    1.5000    2.5981    0.0000 N   0  0  0  0  0  0  0  0  0  0  0  0
    3.0000    2.5981    0.0000 C   0  0  0  0  0  0  0  0  0  0  0  0
    3.7500    1.2990    0.0000 N   0  0  0  0  0  0  0  0  0  0  0  0
    5.2500    1.2990    0.0000 C   0  0  0  0  0  0  0  0  0  0  0  0
    6.0000    2.5981    0.0000 C   0  0  0  0  0  0  0  0  0  0  0  0
    7.5000    2.5981    0.0000 Cl  0  0  0  0  0  0  0  0  0  0  0  0
    5.2500    3.8971    0.0000 C   0  0  0  0  0  0  0  0  0  0  0  0
    6.0000    5.1962    0.0000 N   0  0  0  0  0  0  0  0  0  0  0  0
    5.2500    6.4952    0.0000 C   0  0  0  0  0  0  0  0  0  0  0  0
    3.7500    6.4952    0.0000 C   0  0  0  0  0  0  0  0  0  0  0  0
    3.0000    7.7942    0.0000 C   0  0  0  0  0  0  0  0  0  0  0  0
    3.7500    9.0933    0.0000 C   0  0  0  0  0  0  0  0  0  0  0  0
    5.2500    9.0933    0.0000 C   0  0  0  0  0  0  0  0  0  0  0  0
    6.0000    7.7942    0.0000 C   0  0  0  0  0  0  0  0  0  0  0  0
    7.5000    7.7942    0.0000 P   0  0  0  0  0  0  0  0  0  0  0  0
    7.5000    6.2942    0.0000 C   0  0  0  0  0  0  0  0  0  0  0  0
    7.5000    9.2942    0.0000 C   0  0  0  0  0  0  0  0  0  0  0  0
    9.0000    7.7942    0.0000 O   0  0  0  0  0  0  0  0  0  0  0  0
    3.7500    3.8971    0.0000 N   0  0  0  0  0  0  0  0  0  0  0  0
  1  2  1  0
  2  3  1  0
  3  4  2  0
  4  5  1  0
  5  6  1  0
  6  7  1  0
  6  8  1  0
  6  9  2  0
  5 10  2  0
 10 11  1  0
 11 12  2  0
 12 13  1  0
 13 14  1  0
 14 15  2  0
 15 16  1  0
 16 17  2  0
 17 18  1  0
 17 19  1  0
 19 20  1  0
 20 21  1  0
 21 22  2  0
 22 23  1  0
 23 24  2  0
 24 25  1  0
 25 26  2  0
 26 27  1  0
 27 28  1  0
 27 29  1  0
 27 30  2  0
 19 31  2  0
 12  3  1  0
 31 14  1  0
 26 21  1  0
M  END
>  <Compound_ID>  (60) 
CHEMBL3823165

>  <Molecule Name>  (60) 
nan

>  <Molecular Weight>  (60) 
478.86

>  <AlogP>  (60) 
5.12

>  <Smiles>  (60) 
COc1cc(P(C)(C)=O)ccc1Nc1ncc(Cl)c(Nc2ccccc2P(C)(C)=O)n1

>  <Standard Type>  (60) 
IC50

>  <Standard Relation>  (60) 
'='

>  <Standard Units>  (60) 
nM

>  <Standard Value>  (60) 
1.06

>  <Assay ChEMBL ID>  (60) 
CHEMBL3824709

>  <Assay Description>  (60) 
Inhibition of human ALK using poly[Glu:Tyr] (4:1) as substrate and [gamma-33P]ATP measured after 1 hr

>  <BAO Format ID>  (60) 
BAO_0000357

>  <BAO Label>  (60) 
single protein format

>  <Assay Organism>  (60) 
Homo sapiens

>  <Target ChEMBL ID>  (60) 
CHEMBL4247

>  <Target Name>  (60) 
ALK tyrosine kinase receptor

>  <Target Organism>  (60) 
Homo sapiens

>  <Target Type>  (60) 
SINGLE PROTEIN

>  <Document ChEMBL ID>  (60) 
CHEMBL3822358

>  <Source Description>  (60) 
Scientific Literature

>  <Document Journal>  (60) 
J Med Chem

>  <Document Year>  (60) 
2016.0

>  <Active>  (60) 
1.0

>  <bits>  (60) 
<rdkit.DataStructs.cDataStructs.ExplicitBitVect object at 0x000002422F1E25E0>

>  <Group>  (60) 
G2

$$$$

     RDKit          2D

 38 43  0  0  0  0  0  0  0  0999 V2000
   -6.8516   -6.6578    0.0000 C   0  0  0  0  0  0  0  0  0  0  0  0
   -5.6381   -7.5395    0.0000 C   0  0  0  0  0  0  0  0  0  0  0  0
   -4.2677   -6.9294    0.0000 C   0  0  0  0  0  0  0  0  0  0  0  0
   -4.1110   -5.4376    0.0000 C   0  0  0  0  0  0  0  0  0  0  0  0
   -2.7406   -4.8275    0.0000 C   0  0  0  0  0  0  0  0  0  0  0  0
   -1.5271   -5.7092    0.0000 C   0  0  0  0  0  0  0  0  0  0  0  0
   -1.6839   -7.2010    0.0000 C   0  0  0  0  0  0  0  0  0  0  0  0
   -3.0542   -7.8111    0.0000 C   0  0  0  0  0  0  0  0  0  0  0  0
   -3.2110   -9.3029    0.0000 N   0  0  0  0  0  0  0  0  0  0  0  0
   -4.5813   -9.9130    0.0000 C   0  0  0  0  0  0  0  0  0  0  0  0
   -4.7381  -11.4047    0.0000 C   0  0  0  0  0  0  0  0  0  0  0  0
   -3.5246  -12.2864    0.0000 N   0  0  0  0  0  0  0  0  0  0  0  0
   -3.6814  -13.7782    0.0000 C   0  0  0  0  0  0  0  0  0  0  0  0
   -5.0517  -14.3883    0.0000 C   0  0  0  0  0  0  0  0  0  0  0  0
   -5.4146  -12.9329    0.0000 O   0  0  0  0  0  0  0  0  0  0  0  0
   -4.2129  -15.6319    0.0000 C   0  0  0  0  0  0  0  0  0  0  0  0
   -4.8705  -16.9801    0.0000 C   0  0  0  0  0  0  0  0  0  0  0  0
   -6.3668  -17.0847    0.0000 N   0  0  0  0  0  0  0  0  0  0  0  0
   -7.2056  -15.8411    0.0000 C   0  0  0  0  0  0  0  0  0  0  0  0
   -6.5481  -14.4929    0.0000 C   0  0  0  0  0  0  0  0  0  0  0  0
   -2.1543  -11.6763    0.0000 C   0  0  0  0  0  0  0  0  0  0  0  0
   -1.9975  -10.1845    0.0000 C   0  0  0  0  0  0  0  0  0  0  0  0
   -0.1568   -5.0991    0.0000 C   0  0  0  0  0  0  0  0  0  0  0  0
    1.3396   -4.9944    0.0000 C   0  0  0  0  0  0  0  0  0  0  0  0
    0.2061   -6.5545    0.0000 C   0  0  0  0  0  0  0  0  0  0  0  0
   -0.0000   -3.6073    0.0000 C   0  0  0  0  0  0  0  0  0  0  0  0
    1.2135   -2.7256    0.0000 N   0  0  0  0  0  0  0  0  0  0  0  0
    0.7500   -1.2990    0.0000 C   0  0  0  0  0  0  0  0  0  0  0  0
    1.5000    0.0000    0.0000 C   0  0  0  0  0  0  0  0  0  0  0  0
    0.7500    1.2990    0.0000 C   0  0  0  0  0  0  0  0  0  0  0  0
    1.5000    2.5981    0.0000 C   0  0  0  0  0  0  0  0  0  0  0  0
    2.2500    3.8971    0.0000 N   0  0  0  0  0  0  0  0  0  0  0  0
   -0.7500    1.2990    0.0000 C   0  0  0  0  0  0  0  0  0  0  0  0
   -1.5000    0.0000    0.0000 C   0  0  0  0  0  0  0  0  0  0  0  0
   -0.7500   -1.2990    0.0000 C   0  0  0  0  0  0  0  0  0  0  0  0
   -1.2135   -2.7256    0.0000 C   0  0  0  0  0  0  0  0  0  0  0  0
   -2.5838   -3.3357    0.0000 C   0  0  0  0  0  0  0  0  0  0  0  0
   -3.7974   -2.4540    0.0000 O   0  0  0  0  0  0  0  0  0  0  0  0
  1  2  1  0
  2  3  1  0
  3  4  2  0
  4  5  1  0
  5  6  2  0
  6  7  1  0
  7  8  2  0
  8  9  1  0
  9 10  1  0
 10 11  1  0
 11 12  1  0
 12 13  1  0
 13 14  1  0
 14 15  1  0
 14 16  1  0
 16 17  1  0
 17 18  1  0
 18 19  1  0
 19 20  1  0
 12 21  1  0
 21 22  1  0
  6 23  1  0
 23 24  1  0
 23 25  1  0
 23 26  1  0
 26 27  1  0
 27 28  1  0
 28 29  2  0
 29 30  1  0
 30 31  1  0
 31 32  3  0
 30 33  2  0
 33 34  1  0
 34 35  2  0
 35 36  1  0
 36 37  1  0
 37 38  2  0
  8  3  1  0
 22  9  1  0
 36 26  2  0
 37  5  1  0
 20 14  1  0
 35 28  1  0
M  END
>  <Compound_ID>  (61) 
CHEMBL3925858

>  <Molecule Name>  (61) 
nan

>  <Molecular Weight>  (61) 
511.67

>  <AlogP>  (61) 
3.71

>  <Smiles>  (61) 
CCc1cc2c(cc1N1CCN(CC3(O)CCNCC3)CC1)C(C)(C)c1[nH]c3cc(C#N)ccc3c1C2=O

>  <Standard Type>  (61) 
IC50

>  <Standard Relation>  (61) 
'='

>  <Standard Units>  (61) 
nM

>  <Standard Value>  (61) 
1.4

>  <Assay ChEMBL ID>  (61) 
CHEMBL3864889

>  <Assay Description>  (61) 
Inhibition of recombinant wild type ALK (unknown origin) using poly (Glu,Tyr)4:1 as substrate after 60 mins by ELISA

>  <BAO Format ID>  (61) 
BAO_0000357

>  <BAO Label>  (61) 
single protein format

>  <Assay Organism>  (61) 
Homo sapiens

>  <Target ChEMBL ID>  (61) 
CHEMBL4247

>  <Target Name>  (61) 
ALK tyrosine kinase receptor

>  <Target Organism>  (61) 
Homo sapiens

>  <Target Type>  (61) 
SINGLE PROTEIN

>  <Document ChEMBL ID>  (61) 
CHEMBL3864153

>  <Source Description>  (61) 
Scientific Literature

>  <Document Journal>  (61) 
Bioorg Med Chem Lett

>  <Document Year>  (61) 
2016.0

>  <Active>  (61) 
1.0

>  <bits>  (61) 
<rdkit.DataStructs.cDataStructs.ExplicitBitVect object at 0x000002422F1E0660>

>  <Group>  (61) 
G2

$$$$

     RDKit          2D

 42 46  0  0  0  0  0  0  0  0999 V2000
   -6.8516   -6.6578    0.0000 C   0  0  0  0  0  0  0  0  0  0  0  0
   -5.6381   -7.5395    0.0000 C   0  0  0  0  0  0  0  0  0  0  0  0
   -4.2677   -6.9294    0.0000 C   0  0  0  0  0  0  0  0  0  0  0  0
   -4.1110   -5.4376    0.0000 C   0  0  0  0  0  0  0  0  0  0  0  0
   -2.7406   -4.8275    0.0000 C   0  0  0  0  0  0  0  0  0  0  0  0
   -1.5271   -5.7092    0.0000 C   0  0  0  0  0  0  0  0  0  0  0  0
   -1.6839   -7.2010    0.0000 C   0  0  0  0  0  0  0  0  0  0  0  0
   -3.0542   -7.8111    0.0000 C   0  0  0  0  0  0  0  0  0  0  0  0
   -3.2110   -9.3029    0.0000 N   0  0  0  0  0  0  0  0  0  0  0  0
   -4.5813   -9.9130    0.0000 C   0  0  0  0  0  0  0  0  0  0  0  0
   -4.7381  -11.4047    0.0000 C   0  0  0  0  0  0  0  0  0  0  0  0
   -3.5246  -12.2864    0.0000 N   0  0  0  0  0  0  0  0  0  0  0  0
   -3.6814  -13.7782    0.0000 C   0  0  0  0  0  0  0  0  0  0  0  0
   -5.0517  -14.3883    0.0000 C   0  0  0  0  0  0  0  0  0  0  0  0
   -6.4220  -14.9984    0.0000 O   0  0  0  0  0  0  0  0  0  0  0  0
   -5.6618  -13.0180    0.0000 C   0  0  0  0  0  0  0  0  0  0  0  0
   -7.1536  -12.8612    0.0000 C   0  0  0  0  0  0  0  0  0  0  0  0
   -7.7637  -11.4909    0.0000 C   0  0  0  0  0  0  0  0  0  0  0  0
   -6.8820  -10.2774    0.0000 O   0  0  0  0  0  0  0  0  0  0  0  0
   -9.2555  -11.3341    0.0000 O   0  0  0  0  0  0  0  0  0  0  0  0
   -4.4416  -15.7586    0.0000 C   0  0  0  0  0  0  0  0  0  0  0  0
   -5.3233  -16.9722    0.0000 C   0  0  0  0  0  0  0  0  0  0  0  0
   -6.8151  -16.8154    0.0000 O   0  0  0  0  0  0  0  0  0  0  0  0
   -4.7132  -18.3425    0.0000 O   0  0  0  0  0  0  0  0  0  0  0  0
   -2.1543  -11.6763    0.0000 C   0  0  0  0  0  0  0  0  0  0  0  0
   -1.9975  -10.1845    0.0000 C   0  0  0  0  0  0  0  0  0  0  0  0
   -0.1568   -5.0991    0.0000 C   0  0  0  0  0  0  0  0  0  0  0  0
    1.3396   -4.9944    0.0000 C   0  0  0  0  0  0  0  0  0  0  0  0
    0.2061   -6.5545    0.0000 C   0  0  0  0  0  0  0  0  0  0  0  0
   -0.0000   -3.6073    0.0000 C   0  0  0  0  0  0  0  0  0  0  0  0
    1.2135   -2.7256    0.0000 N   0  0  0  0  0  0  0  0  0  0  0  0
    0.7500   -1.2990    0.0000 C   0  0  0  0  0  0  0  0  0  0  0  0
    1.5000    0.0000    0.0000 C   0  0  0  0  0  0  0  0  0  0  0  0
    0.7500    1.2990    0.0000 C   0  0  0  0  0  0  0  0  0  0  0  0
    1.5000    2.5981    0.0000 C   0  0  0  0  0  0  0  0  0  0  0  0
    2.2500    3.8971    0.0000 N   0  0  0  0  0  0  0  0  0  0  0  0
   -0.7500    1.2990    0.0000 C   0  0  0  0  0  0  0  0  0  0  0  0
   -1.5000    0.0000    0.0000 C   0  0  0  0  0  0  0  0  0  0  0  0
   -0.7500   -1.2990    0.0000 C   0  0  0  0  0  0  0  0  0  0  0  0
   -1.2135   -2.7256    0.0000 C   0  0  0  0  0  0  0  0  0  0  0  0
   -2.5838   -3.3357    0.0000 C   0  0  0  0  0  0  0  0  0  0  0  0
   -3.7974   -2.4540    0.0000 O   0  0  0  0  0  0  0  0  0  0  0  0
  1  2  1  0
  2  3  1  0
  3  4  2  0
  4  5  1  0
  5  6  2  0
  6  7  1  0
  7  8  2  0
  8  9  1  0
  9 10  1  0
 10 11  1  0
 11 12  1  0
 12 13  1  0
 13 14  1  0
 14 15  1  0
 14 16  1  0
 16 17  1  0
 17 18  1  0
 18 19  2  0
 18 20  1  0
 14 21  1  0
 21 22  1  0
 22 23  2  0
 22 24  1  0
 12 25  1  0
 25 26  1  0
  6 27  1  0
 27 28  1  0
 27 29  1  0
 27 30  1  0
 30 31  1  0
 31 32  1  0
 32 33  2  0
 33 34  1  0
 34 35  1  0
 35 36  3  0
 34 37  2  0
 37 38  1  0
 38 39  2  0
 39 40  1  0
 40 41  1  0
 41 42  2  0
  8  3  1  0
 26  9  1  0
 40 30  2  0
 41  5  1  0
 39 32  1  0
M  END
>  <Compound_ID>  (62) 
CHEMBL3934754

>  <Molecule Name>  (62) 
nan

>  <Molecular Weight>  (62) 
572.66

>  <AlogP>  (62) 
3.66

>  <Smiles>  (62) 
CCc1cc2c(cc1N1CCN(CC(O)(CCC(=O)O)CC(=O)O)CC1)C(C)(C)c1[nH]c3cc(C#N)ccc3c1C2=O

>  <Standard Type>  (62) 
IC50

>  <Standard Relation>  (62) 
'='

>  <Standard Units>  (62) 
nM

>  <Standard Value>  (62) 
17.1

>  <Assay ChEMBL ID>  (62) 
CHEMBL3864889

>  <Assay Description>  (62) 
Inhibition of recombinant wild type ALK (unknown origin) using poly (Glu,Tyr)4:1 as substrate after 60 mins by ELISA

>  <BAO Format ID>  (62) 
BAO_0000357

>  <BAO Label>  (62) 
single protein format

>  <Assay Organism>  (62) 
Homo sapiens

>  <Target ChEMBL ID>  (62) 
CHEMBL4247

>  <Target Name>  (62) 
ALK tyrosine kinase receptor

>  <Target Organism>  (62) 
Homo sapiens

>  <Target Type>  (62) 
SINGLE PROTEIN

>  <Document ChEMBL ID>  (62) 
CHEMBL3864153

>  <Source Description>  (62) 
Scientific Literature

>  <Document Journal>  (62) 
Bioorg Med Chem Lett

>  <Document Year>  (62) 
2016.0

>  <Active>  (62) 
1.0

>  <bits>  (62) 
<rdkit.DataStructs.cDataStructs.ExplicitBitVect object at 0x000002422F1E1A80>

>  <Group>  (62) 
G2

$$$$

     RDKit          2D

 42 47  0  0  0  0  0  0  0  0999 V2000
    3.7500   -6.4952    0.0000 C   0  0  0  0  0  0  0  0  0  0  0  0
    3.0000   -5.1962    0.0000 O   0  0  0  0  0  0  0  0  0  0  0  0
    1.5000   -5.1962    0.0000 C   0  0  0  0  0  0  0  0  0  0  0  0
    0.7500   -6.4952    0.0000 C   0  0  0  0  0  0  0  0  0  0  0  0
   -0.7500   -6.4952    0.0000 C   0  0  0  0  0  0  0  0  0  0  0  0
   -1.5000   -7.7942    0.0000 N   0  0  0  0  0  0  0  0  0  0  0  0
   -3.0000   -7.7942    0.0000 C   0  0  0  0  0  0  0  0  0  0  0  0
   -3.7500   -9.0933    0.0000 C   0  0  0  0  0  0  0  0  0  0  0  0
   -3.0000  -10.3923    0.0000 C   0  0  0  0  0  0  0  0  0  0  0  0
   -3.7500  -11.6913    0.0000 N   0  0  0  0  0  0  0  0  0  0  0  0
   -5.2500  -11.6913    0.0000 C   0  0  0  0  0  0  0  0  0  0  0  0
   -6.0000  -12.9904    0.0000 C   0  0  0  0  0  0  0  0  0  0  0  0
   -5.2500  -14.2894    0.0000 O   0  0  0  0  0  0  0  0  0  0  0  0
   -3.7500  -14.2894    0.0000 C   0  0  0  0  0  0  0  0  0  0  0  0
   -3.0000  -12.9904    0.0000 C   0  0  0  0  0  0  0  0  0  0  0  0
   -1.5000  -10.3923    0.0000 C   0  0  0  0  0  0  0  0  0  0  0  0
   -0.7500   -9.0933    0.0000 C   0  0  0  0  0  0  0  0  0  0  0  0
   -1.5000   -5.1962    0.0000 C   0  0  0  0  0  0  0  0  0  0  0  0
   -0.7500   -3.8971    0.0000 C   0  0  0  0  0  0  0  0  0  0  0  0
    0.7500   -3.8971    0.0000 C   0  0  0  0  0  0  0  0  0  0  0  0
    1.5000   -2.5981    0.0000 N   0  0  0  0  0  0  0  0  0  0  0  0
    0.7500   -1.2990    0.0000 C   0  0  0  0  0  0  0  0  0  0  0  0
    1.5000    0.0000    0.0000 N   0  0  0  0  0  0  0  0  0  0  0  0
    0.7500    1.2990    0.0000 C   0  0  0  0  0  0  0  0  0  0  0  0
   -0.7500    1.2990    0.0000 C   0  0  0  0  0  0  0  0  0  0  0  0
   -1.7537    2.4138    0.0000 C   0  0  0  0  0  0  0  0  0  0  0  0
   -3.1240    1.8037    0.0000 C   0  0  0  0  0  0  0  0  0  0  0  0
   -2.9672    0.3119    0.0000 C   0  0  0  0  0  0  0  0  0  0  0  0
   -4.0819   -0.6918    0.0000 C   0  0  0  0  0  0  0  0  0  0  0  0
   -3.7701   -2.1590    0.0000 C   0  0  0  0  0  0  0  0  0  0  0  0
   -4.8848   -3.1627    0.0000 C   0  0  0  0  0  0  0  0  0  0  0  0
   -6.3114   -2.6992    0.0000 C   0  0  0  0  0  0  0  0  0  0  0  0
   -6.6232   -1.2320    0.0000 C   0  0  0  0  0  0  0  0  0  0  0  0
   -5.5085   -0.2283    0.0000 C   0  0  0  0  0  0  0  0  0  0  0  0
   -5.8204    1.2389    0.0000 N   0  0  0  0  0  0  0  0  0  0  0  0
   -7.2470    1.7024    0.0000 C   0  0  0  0  0  0  0  0  0  0  0  0
   -4.7057    2.2426    0.0000 S   0  0  0  0  0  0  0  0  0  0  0  0
   -3.5910    3.2463    0.0000 C   0  0  0  0  0  0  0  0  0  0  0  0
   -3.7020    1.1279    0.0000 O   0  0  0  0  0  0  0  0  0  0  0  0
   -5.7094    3.3573    0.0000 O   0  0  0  0  0  0  0  0  0  0  0  0
   -1.5000    0.0000    0.0000 N   0  0  0  0  0  0  0  0  0  0  0  0
   -0.7500   -1.2990    0.0000 N   0  0  0  0  0  0  0  0  0  0  0  0
  1  2  1  0
  2  3  1  0
  3  4  2  0
  4  5  1  0
  5  6  1  0
  6  7  1  0
  7  8  1  0
  8  9  1  0
  9 10  1  0
 10 11  1  0
 11 12  1  0
 12 13  1  0
 13 14  1  0
 14 15  1  0
  9 16  1  0
 16 17  1  0
  5 18  2  0
 18 19  1  0
 19 20  2  0
 20 21  1  0
 21 22  1  0
 22 23  1  0
 23 24  2  0
 24 25  1  0
 25 26  2  0
 26 27  1  0
 27 28  2  0
 28 29  1  0
 29 30  2  0
 30 31  1  0
 31 32  2  0
 32 33  1  0
 33 34  2  0
 34 35  1  0
 35 36  1  0
 35 37  1  0
 37 38  1  0
 37 39  2  0
 37 40  2  0
 28 41  1  0
 41 42  1  0
 20  3  1  0
 42 22  2  0
 17  6  1  0
 41 25  1  0
 15 10  1  0
 34 29  1  0
M  END
>  <Compound_ID>  (63) 
CHEMBL1822527

>  <Molecule Name>  (63) 
nan

>  <Molecular Weight>  (63) 
591.74

>  <AlogP>  (63) 
3.85

>  <Smiles>  (63) 
COc1cc(N2CCC(N3CCOCC3)CC2)ccc1Nc1ncc2ccc(-c3ccccc3N(C)S(C)(=O)=O)n2n1

>  <Standard Type>  (63) 
IC50

>  <Standard Relation>  (63) 
'='

>  <Standard Units>  (63) 
nM

>  <Standard Value>  (63) 
7.0

>  <Assay ChEMBL ID>  (63) 
CHEMBL1825977

>  <Assay Description>  (63) 
Inhibition of human recombinant ALK assessed as phosphorylated product using PLC-gamma/GST substrate by modified ELISA method

>  <BAO Format ID>  (63) 
BAO_0000357

>  <BAO Label>  (63) 
single protein format

>  <Assay Organism>  (63) 
Homo sapiens

>  <Target ChEMBL ID>  (63) 
CHEMBL4247

>  <Target Name>  (63) 
ALK tyrosine kinase receptor

>  <Target Organism>  (63) 
Homo sapiens

>  <Target Type>  (63) 
SINGLE PROTEIN

>  <Document ChEMBL ID>  (63) 
CHEMBL1821719

>  <Source Description>  (63) 
Scientific Literature

>  <Document Journal>  (63) 
J Med Chem

>  <Document Year>  (63) 
2011.0

>  <Active>  (63) 
1.0

>  <bits>  (63) 
<rdkit.DataStructs.cDataStructs.ExplicitBitVect object at 0x000002422F1E33E0>

>  <Group>  (63) 
G2

$$$$

     RDKit          2D

 41 45  0  0  0  0  0  0  0  0999 V2000
    3.7500   -1.2990    0.0000 C   0  0  0  0  0  0  0  0  0  0  0  0
    3.0000    0.0000    0.0000 O   0  0  0  0  0  0  0  0  0  0  0  0
    1.5000    0.0000    0.0000 C   0  0  0  0  0  0  0  0  0  0  0  0
    0.7500   -1.2990    0.0000 C   0  0  0  0  0  0  0  0  0  0  0  0
   -0.7500   -1.2990    0.0000 C   0  0  0  0  0  0  0  0  0  0  0  0
   -1.5000   -2.5981    0.0000 N   0  0  0  0  0  0  0  0  0  0  0  0
   -3.0000   -2.5981    0.0000 C   0  0  0  0  0  0  0  0  0  0  0  0
   -3.7500   -3.8971    0.0000 C   0  0  0  0  0  0  0  0  0  0  0  0
   -3.0000   -5.1962    0.0000 C   0  0  0  0  0  0  0  0  0  0  0  0
   -3.7500   -6.4952    0.0000 N   0  0  0  0  0  0  0  0  0  0  0  0
   -5.2500   -6.4952    0.0000 C   0  0  0  0  0  0  0  0  0  0  0  0
   -6.0000   -7.7942    0.0000 C   0  0  0  0  0  0  0  0  0  0  0  0
   -5.2500   -9.0933    0.0000 N   0  0  0  0  0  0  0  0  0  0  0  0
   -6.0000  -10.3923    0.0000 C   0  0  0  0  0  0  0  0  0  0  0  0
   -3.7500   -9.0933    0.0000 C   0  0  0  0  0  0  0  0  0  0  0  0
   -3.0000   -7.7942    0.0000 C   0  0  0  0  0  0  0  0  0  0  0  0
   -1.5000   -5.1962    0.0000 C   0  0  0  0  0  0  0  0  0  0  0  0
   -0.7500   -3.8971    0.0000 C   0  0  0  0  0  0  0  0  0  0  0  0
   -1.5000    0.0000    0.0000 C   0  0  0  0  0  0  0  0  0  0  0  0
   -0.7500    1.2990    0.0000 C   0  0  0  0  0  0  0  0  0  0  0  0
    0.7500    1.2990    0.0000 C   0  0  0  0  0  0  0  0  0  0  0  0
    1.5000    2.5981    0.0000 N   0  0  0  0  0  0  0  0  0  0  0  0
    3.0000    2.5981    0.0000 C   0  0  0  0  0  0  0  0  0  0  0  0
    3.7500    1.2990    0.0000 N   0  0  0  0  0  0  0  0  0  0  0  0
    5.2500    1.2990    0.0000 C   0  0  0  0  0  0  0  0  0  0  0  0
    6.0000    2.5981    0.0000 C   0  0  0  0  0  0  0  0  0  0  0  0
    7.5000    2.5981    0.0000 Cl  0  0  0  0  0  0  0  0  0  0  0  0
    5.2500    3.8971    0.0000 C   0  0  0  0  0  0  0  0  0  0  0  0
    6.0000    5.1962    0.0000 N   0  0  0  0  0  0  0  0  0  0  0  0
    5.2500    6.4952    0.0000 C   0  0  0  0  0  0  0  0  0  0  0  0
    3.7500    6.4952    0.0000 C   0  0  0  0  0  0  0  0  0  0  0  0
    3.0000    7.7942    0.0000 C   0  0  0  0  0  0  0  0  0  0  0  0
    3.7500    9.0933    0.0000 C   0  0  0  0  0  0  0  0  0  0  0  0
    5.2500    9.0933    0.0000 C   0  0  0  0  0  0  0  0  0  0  0  0
    6.0000    7.7942    0.0000 C   0  0  0  0  0  0  0  0  0  0  0  0
    7.5000    7.7942    0.0000 C   0  0  0  0  0  0  0  0  0  0  0  0
    8.2500    6.4952    0.0000 O   0  0  0  0  0  0  0  0  0  0  0  0
    8.2500    9.0933    0.0000 N   0  0  0  0  0  0  0  0  0  0  0  0
    9.7500    9.0933    0.0000 C   0  0  0  0  0  0  0  0  0  0  0  0
    7.5000   10.3923    0.0000 C   0  0  0  0  0  0  0  0  0  0  0  0
    3.7500    3.8971    0.0000 N   0  0  0  0  0  0  0  0  0  0  0  0
  1  2  1  0
  2  3  1  0
  3  4  2  0
  4  5  1  0
  5  6  1  0
  6  7  1  0
  7  8  1  0
  8  9  1  0
  9 10  1  0
 10 11  1  0
 11 12  1  0
 12 13  1  0
 13 14  1  0
 13 15  1  0
 15 16  1  0
  9 17  1  0
 17 18  1  0
  5 19  2  0
 19 20  1  0
 20 21  2  0
 21 22  1  0
 22 23  1  0
 23 24  2  0
 24 25  1  0
 25 26  2  0
 26 27  1  0
 26 28  1  0
 28 29  1  0
 29 30  1  0
 30 31  2  0
 31 32  1  0
 32 33  2  0
 33 34  1  0
 34 35  2  0
 35 36  1  0
 36 37  2  0
 36 38  1  0
 38 39  1  0
 38 40  1  0
 28 41  2  0
 21  3  1  0
 41 23  1  0
 18  6  1  0
 35 30  1  0
 16 10  1  0
M  END
>  <Compound_ID>  (64) 
CHEMBL3823016

>  <Molecule Name>  (64) 
nan

>  <Molecular Weight>  (64) 
579.15

>  <AlogP>  (64) 
4.54

>  <Smiles>  (64) 
COc1cc(N2CCC(N3CCN(C)CC3)CC2)ccc1Nc1ncc(Cl)c(Nc2ccccc2C(=O)N(C)C)n1

>  <Standard Type>  (64) 
IC50

>  <Standard Relation>  (64) 
'='

>  <Standard Units>  (64) 
nM

>  <Standard Value>  (64) 
4.77

>  <Assay ChEMBL ID>  (64) 
CHEMBL3824709

>  <Assay Description>  (64) 
Inhibition of human ALK using poly[Glu:Tyr] (4:1) as substrate and [gamma-33P]ATP measured after 1 hr

>  <BAO Format ID>  (64) 
BAO_0000357

>  <BAO Label>  (64) 
single protein format

>  <Assay Organism>  (64) 
Homo sapiens

>  <Target ChEMBL ID>  (64) 
CHEMBL4247

>  <Target Name>  (64) 
ALK tyrosine kinase receptor

>  <Target Organism>  (64) 
Homo sapiens

>  <Target Type>  (64) 
SINGLE PROTEIN

>  <Document ChEMBL ID>  (64) 
CHEMBL3822358

>  <Source Description>  (64) 
Scientific Literature

>  <Document Journal>  (64) 
J Med Chem

>  <Document Year>  (64) 
2016.0

>  <Active>  (64) 
1.0

>  <bits>  (64) 
<rdkit.DataStructs.cDataStructs.ExplicitBitVect object at 0x000002422F1E2EA0>

>  <Group>  (64) 
G2

$$$$

     RDKit          2D

 33 38  0  0  0  0  0  0  0  0999 V2000
   -8.2574    0.4549    0.0000 N   0  0  0  0  0  0  0  0  0  0  0  0
   -6.7656    0.6117    0.0000 C   0  0  0  0  0  0  0  0  0  0  0  0
   -5.8840   -0.6018    0.0000 O   0  0  0  0  0  0  0  0  0  0  0  0
   -6.1555    1.9820    0.0000 C   0  0  0  0  0  0  0  0  0  0  0  0
   -4.6883    2.2939    0.0000 C   0  0  0  0  0  0  0  0  0  0  0  0
   -3.5736    1.2902    0.0000 N   0  0  0  0  0  0  0  0  0  0  0  0
   -2.1470    1.7537    0.0000 C   0  0  0  0  0  0  0  0  0  0  0  0
   -1.8351    3.2209    0.0000 C   0  0  0  0  0  0  0  0  0  0  0  0
   -2.9499    4.2246    0.0000 Br  0  0  0  0  0  0  0  0  0  0  0  0
   -0.4086    3.6844    0.0000 C   0  0  0  0  0  0  0  0  0  0  0  0
    0.7062    2.6807    0.0000 N   0  0  0  0  0  0  0  0  0  0  0  0
    0.3943    1.2135    0.0000 C   0  0  0  0  0  0  0  0  0  0  0  0
    1.2760    0.0000    0.0000 N   0  0  0  0  0  0  0  0  0  0  0  0
    0.3943   -1.2135    0.0000 C   0  0  0  0  0  0  0  0  0  0  0  0
    0.8578   -2.6401    0.0000 C   0  0  0  0  0  0  0  0  0  0  0  0
   -0.1459   -3.7548    0.0000 C   0  0  0  0  0  0  0  0  0  0  0  0
    0.3177   -5.1814    0.0000 C   0  0  0  0  0  0  0  0  0  0  0  0
    1.7849   -5.4933    0.0000 C   0  0  0  0  0  0  0  0  0  0  0  0
    2.2484   -6.9199    0.0000 N   0  0  0  0  0  0  0  0  0  0  0  0
    1.2447   -8.0346    0.0000 C   0  0  0  0  0  0  0  0  0  0  0  0
    1.7082   -9.4612    0.0000 C   0  0  0  0  0  0  0  0  0  0  0  0
    3.1755   -9.7730    0.0000 O   0  0  0  0  0  0  0  0  0  0  0  0
    4.1791   -8.6583    0.0000 C   0  0  0  0  0  0  0  0  0  0  0  0
    3.7156   -7.2317    0.0000 C   0  0  0  0  0  0  0  0  0  0  0  0
    2.7886   -4.3786    0.0000 C   0  0  0  0  0  0  0  0  0  0  0  0
    2.3250   -2.9520    0.0000 C   0  0  0  0  0  0  0  0  0  0  0  0
   -1.0323   -0.7500    0.0000 N   0  0  0  0  0  0  0  0  0  0  0  0
   -1.0323    0.7500    0.0000 C   0  0  0  0  0  0  0  0  0  0  0  0
   -4.5315    3.7856    0.0000 C   0  0  0  0  0  0  0  0  0  0  0  0
   -5.2815    5.0847    0.0000 C   0  0  0  0  0  0  0  0  0  0  0  0
   -6.7487    4.7728    0.0000 C   0  0  0  0  0  0  0  0  0  0  0  0
   -6.9055    3.2810    0.0000 C   0  0  0  0  0  0  0  0  0  0  0  0
   -5.5352    2.6709    0.0000 C   0  0  0  0  0  0  0  0  0  0  0  0
  1  2  1  0
  2  3  2  0
  4  2  1  1
  4  5  1  0
  5  6  1  1
  6  7  1  0
  7  8  1  0
  8  9  1  0
  8 10  2  0
 10 11  1  0
 11 12  2  0
 12 13  1  0
 13 14  1  0
 14 15  1  0
 15 16  2  0
 16 17  1  0
 17 18  2  0
 18 19  1  0
 19 20  1  0
 20 21  1  0
 21 22  1  0
 22 23  1  0
 23 24  1  0
 18 25  1  0
 25 26  2  0
 14 27  2  0
 27 28  1  0
  5 29  1  0
 29 30  1  6
 30 31  2  0
 32 31  1  6
 32 33  1  0
 32  4  1  0
 28  7  2  0
 33 29  1  0
 28 12  1  0
 26 15  1  0
 24 19  1  0
M  END
>  <Compound_ID>  (65) 
CHEMBL3218860

>  <Molecule Name>  (65) 
nan

>  <Molecular Weight>  (65) 
509.41

>  <AlogP>  (65) 
3.31

>  <Smiles>  (65) 
NC(=O)[C@@H]1[C@H](Nc2c(Br)cnc3[nH]c(-c4ccc(N5CCOCC5)cc4)nc23)[C@H]2C=C[C@@H]1C2

>  <Standard Type>  (65) 
IC50

>  <Standard Relation>  (65) 
'='

>  <Standard Units>  (65) 
nM

>  <Standard Value>  (65) 
29.0

>  <Assay ChEMBL ID>  (65) 
CHEMBL3226250

>  <Assay Description>  (65) 
Inhibition of ALK (unknown origin)

>  <BAO Format ID>  (65) 
BAO_0000357

>  <BAO Label>  (65) 
single protein format

>  <Assay Organism>  (65) 
Homo sapiens

>  <Target ChEMBL ID>  (65) 
CHEMBL4247

>  <Target Name>  (65) 
ALK tyrosine kinase receptor

>  <Target Organism>  (65) 
Homo sapiens

>  <Target Type>  (65) 
SINGLE PROTEIN

>  <Document ChEMBL ID>  (65) 
CHEMBL3217622

>  <Source Description>  (65) 
Scientific Literature

>  <Document Journal>  (65) 
Medchemcomm

>  <Document Year>  (65) 
2012.0

>  <Active>  (65) 
1.0

>  <bits>  (65) 
<rdkit.DataStructs.cDataStructs.ExplicitBitVect object at 0x000002422F1E2420>

>  <Group>  (65) 
G2

$$$$

     RDKit          2D

 29 33  0  0  0  0  0  0  0  0999 V2000
    2.6491   -3.5623    0.0000 C   0  0  0  0  0  0  0  0  0  0  0  0
    1.5000   -2.5981    0.0000 C   0  0  0  0  0  0  0  0  0  0  0  0
    2.6491   -1.6339    0.0000 C   0  0  0  0  0  0  0  0  0  0  0  0
    0.7500   -1.2990    0.0000 C   0  0  0  0  0  0  0  0  0  0  0  0
    1.5000    0.0000    0.0000 C   0  0  0  0  0  0  0  0  0  0  0  0
    0.7500    1.2990    0.0000 C   0  0  0  0  0  0  0  0  0  0  0  0
    1.5000    2.5981    0.0000 O   0  0  0  0  0  0  0  0  0  0  0  0
    3.0000    2.5981    0.0000 C   0  0  0  0  0  0  0  0  0  0  0  0
    3.7500    1.2990    0.0000 N   0  0  0  0  0  0  0  0  0  0  0  0
    5.2500    1.2990    0.0000 C   0  0  0  0  0  0  0  0  0  0  0  0
    6.0000    2.5981    0.0000 C   0  0  0  0  0  0  0  0  0  0  0  0
    5.2500    3.8971    0.0000 C   0  0  0  0  0  0  0  0  0  0  0  0
    3.7500    3.8971    0.0000 N   0  0  0  0  0  0  0  0  0  0  0  0
   -0.7500    1.2990    0.0000 C   0  0  0  0  0  0  0  0  0  0  0  0
   -1.5000    0.0000    0.0000 C   0  0  0  0  0  0  0  0  0  0  0  0
   -0.7500   -1.2990    0.0000 C   0  0  0  0  0  0  0  0  0  0  0  0
   -1.5000   -2.5981    0.0000 C   0  0  0  0  0  0  0  0  0  0  0  0
   -3.0000   -2.5981    0.0000 O   0  0  0  0  0  0  0  0  0  0  0  0
   -0.7500   -3.8971    0.0000 C   0  0  0  0  0  0  0  0  0  0  0  0
    0.7500   -3.8971    0.0000 C   0  0  0  0  0  0  0  0  0  0  0  0
    1.2135   -5.3237    0.0000 N   0  0  0  0  0  0  0  0  0  0  0  0
    0.0000   -6.2054    0.0000 C   0  0  0  0  0  0  0  0  0  0  0  0
   -0.1568   -7.6972    0.0000 C   0  0  0  0  0  0  0  0  0  0  0  0
   -1.5271   -8.3073    0.0000 C   0  0  0  0  0  0  0  0  0  0  0  0
   -1.6839   -9.7990    0.0000 C   0  0  0  0  0  0  0  0  0  0  0  0
   -1.8407  -11.2908    0.0000 N   0  0  0  0  0  0  0  0  0  0  0  0
   -2.7406   -7.4256    0.0000 C   0  0  0  0  0  0  0  0  0  0  0  0
   -2.5838   -5.9338    0.0000 C   0  0  0  0  0  0  0  0  0  0  0  0
   -1.2135   -5.3237    0.0000 C   0  0  0  0  0  0  0  0  0  0  0  0
  1  2  1  0
  2  3  1  0
  2  4  1  0
  4  5  2  0
  5  6  1  0
  6  7  1  0
  7  8  1  0
  8  9  2  0
  9 10  1  0
 10 11  2  0
 11 12  1  0
 12 13  2  0
  6 14  2  0
 14 15  1  0
 15 16  2  0
 16 17  1  0
 17 18  2  0
 17 19  1  0
 19 20  2  0
 20 21  1  0
 21 22  1  0
 22 23  2  0
 23 24  1  0
 24 25  1  0
 25 26  3  0
 24 27  2  0
 27 28  1  0
 28 29  2  0
 20  2  1  0
 29 22  1  0
 16  4  1  0
 29 19  1  0
 13  8  1  0
M  END
>  <Compound_ID>  (66) 
CHEMBL3931695

>  <Molecule Name>  (66) 
nan

>  <Molecular Weight>  (66) 
380.41

>  <AlogP>  (66) 
4.49

>  <Smiles>  (66) 
CC1(C)c2cc(Oc3ncccn3)ccc2C(=O)c2c1[nH]c1cc(C#N)ccc21

>  <Standard Type>  (66) 
IC50

>  <Standard Relation>  (66) 
'='

>  <Standard Units>  (66) 
nM

>  <Standard Value>  (66) 
30.43

>  <Assay ChEMBL ID>  (66) 
CHEMBL3887074

>  <Assay Description>  (66) 
Inhibition Assay: ALK-inhibiting activity was measured by following an activity of inhibiting phosphorylation by biotinylated peptide (EGPWLEEEEEAYGWMDF). For the detection of phosphorylation of the biotinylated peptide, time-resolved fluorescence measurement was performed using an anti-phosphorylated tyrosine antibody labeled with europium cryptate and streptavidin conjugated to XL665, i.e., an allophycocyanin derivative.

>  <BAO Format ID>  (66) 
BAO_0000357

>  <BAO Label>  (66) 
single protein format

>  <Assay Organism>  (66) 
Homo sapiens

>  <Target ChEMBL ID>  (66) 
CHEMBL4247

>  <Target Name>  (66) 
ALK tyrosine kinase receptor

>  <Target Organism>  (66) 
Homo sapiens

>  <Target Type>  (66) 
SINGLE PROTEIN

>  <Document ChEMBL ID>  (66) 
CHEMBL3886150

>  <Source Description>  (66) 
BindingDB Database

>  <Document Journal>  (66) 
nan

>  <Document Year>  (66) 
2015.0

>  <Active>  (66) 
1.0

>  <bits>  (66) 
<rdkit.DataStructs.cDataStructs.ExplicitBitVect object at 0x000002422F1E1310>

>  <Group>  (66) 
G2

$$$$

     RDKit          2D

 32 36  0  0  0  0  0  0  0  0999 V2000
    2.6491   -3.5623    0.0000 C   0  0  0  0  0  0  0  0  0  0  0  0
    1.5000   -2.5981    0.0000 C   0  0  0  0  0  0  0  0  0  0  0  0
    2.6491   -1.6339    0.0000 C   0  0  0  0  0  0  0  0  0  0  0  0
    0.7500   -1.2990    0.0000 C   0  0  0  0  0  0  0  0  0  0  0  0
    1.5000    0.0000    0.0000 C   0  0  0  0  0  0  0  0  0  0  0  0
    0.7500    1.2990    0.0000 C   0  0  0  0  0  0  0  0  0  0  0  0
    1.5000    2.5981    0.0000 C   0  0  0  0  0  0  0  0  0  0  0  0
    0.7500    3.8971    0.0000 O   0  0  0  0  0  0  0  0  0  0  0  0
    3.0000    2.5981    0.0000 N   0  0  0  0  0  0  0  0  0  0  0  0
    3.7500    3.8971    0.0000 C   0  0  0  0  0  0  0  0  0  0  0  0
    3.1399    5.2674    0.0000 C   0  0  0  0  0  0  0  0  0  0  0  0
    4.2546    6.2711    0.0000 C   0  0  0  0  0  0  0  0  0  0  0  0
    5.5537    5.5211    0.0000 S   0  0  0  0  0  0  0  0  0  0  0  0
    6.1638    6.8914    0.0000 O   0  0  0  0  0  0  0  0  0  0  0  0
    6.9802    5.0576    0.0000 O   0  0  0  0  0  0  0  0  0  0  0  0
    5.2418    4.0539    0.0000 C   0  0  0  0  0  0  0  0  0  0  0  0
   -0.7500    1.2990    0.0000 C   0  0  0  0  0  0  0  0  0  0  0  0
   -1.5000    0.0000    0.0000 C   0  0  0  0  0  0  0  0  0  0  0  0
   -0.7500   -1.2990    0.0000 C   0  0  0  0  0  0  0  0  0  0  0  0
   -1.5000   -2.5981    0.0000 C   0  0  0  0  0  0  0  0  0  0  0  0
   -3.0000   -2.5981    0.0000 O   0  0  0  0  0  0  0  0  0  0  0  0
   -0.7500   -3.8971    0.0000 C   0  0  0  0  0  0  0  0  0  0  0  0
    0.7500   -3.8971    0.0000 C   0  0  0  0  0  0  0  0  0  0  0  0
    1.2135   -5.3237    0.0000 N   0  0  0  0  0  0  0  0  0  0  0  0
    0.0000   -6.2054    0.0000 C   0  0  0  0  0  0  0  0  0  0  0  0
   -0.1568   -7.6972    0.0000 C   0  0  0  0  0  0  0  0  0  0  0  0
   -1.5271   -8.3073    0.0000 C   0  0  0  0  0  0  0  0  0  0  0  0
   -1.6839   -9.7990    0.0000 C   0  0  0  0  0  0  0  0  0  0  0  0
   -1.8407  -11.2908    0.0000 N   0  0  0  0  0  0  0  0  0  0  0  0
   -2.7406   -7.4256    0.0000 C   0  0  0  0  0  0  0  0  0  0  0  0
   -2.5838   -5.9338    0.0000 C   0  0  0  0  0  0  0  0  0  0  0  0
   -1.2135   -5.3237    0.0000 C   0  0  0  0  0  0  0  0  0  0  0  0
  1  2  1  0
  2  3  1  0
  2  4  1  0
  4  5  2  0
  5  6  1  0
  6  7  1  0
  7  8  2  0
  7  9  1  0
  9 10  1  0
 10 11  1  0
 11 12  1  0
 12 13  1  0
 13 14  2  0
 13 15  2  0
 13 16  1  0
  6 17  2  0
 17 18  1  0
 18 19  2  0
 19 20  1  0
 20 21  2  0
 20 22  1  0
 22 23  2  0
 23 24  1  0
 24 25  1  0
 25 26  2  0
 26 27  1  0
 27 28  1  0
 28 29  3  0
 27 30  2  0
 30 31  1  0
 31 32  2  0
 23  2  1  0
 32 25  1  0
 19  4  1  0
 32 22  1  0
 16 10  1  0
M  END
>  <Compound_ID>  (67) 
CHEMBL3983750

>  <Molecule Name>  (67) 
nan

>  <Molecular Weight>  (67) 
447.52

>  <AlogP>  (67) 
2.83

>  <Smiles>  (67) 
CC1(C)c2cc(C(=O)NC3CCS(=O)(=O)C3)ccc2C(=O)c2c1[nH]c1cc(C#N)ccc21

>  <Standard Type>  (67) 
IC50

>  <Standard Relation>  (67) 
'='

>  <Standard Units>  (67) 
nM

>  <Standard Value>  (67) 
26.85

>  <Assay ChEMBL ID>  (67) 
CHEMBL3887074

>  <Assay Description>  (67) 
Inhibition Assay: ALK-inhibiting activity was measured by following an activity of inhibiting phosphorylation by biotinylated peptide (EGPWLEEEEEAYGWMDF). For the detection of phosphorylation of the biotinylated peptide, time-resolved fluorescence measurement was performed using an anti-phosphorylated tyrosine antibody labeled with europium cryptate and streptavidin conjugated to XL665, i.e., an allophycocyanin derivative.

>  <BAO Format ID>  (67) 
BAO_0000357

>  <BAO Label>  (67) 
single protein format

>  <Assay Organism>  (67) 
Homo sapiens

>  <Target ChEMBL ID>  (67) 
CHEMBL4247

>  <Target Name>  (67) 
ALK tyrosine kinase receptor

>  <Target Organism>  (67) 
Homo sapiens

>  <Target Type>  (67) 
SINGLE PROTEIN

>  <Document ChEMBL ID>  (67) 
CHEMBL3886150

>  <Source Description>  (67) 
BindingDB Database

>  <Document Journal>  (67) 
nan

>  <Document Year>  (67) 
2015.0

>  <Active>  (67) 
1.0

>  <bits>  (67) 
<rdkit.DataStructs.cDataStructs.ExplicitBitVect object at 0x000002422F1E0EB0>

>  <Group>  (67) 
G2

$$$$

     RDKit          2D

 41 45  0  0  0  0  0  0  0  0999 V2000
  -10.5759   -3.0359    0.0000 C   0  0  0  0  0  0  0  0  0  0  0  0
   -9.4612   -4.0396    0.0000 C   0  0  0  0  0  0  0  0  0  0  0  0
   -9.7730   -5.5068    0.0000 C   0  0  0  0  0  0  0  0  0  0  0  0
   -8.0346   -3.5760    0.0000 N   0  0  0  0  0  0  0  0  0  0  0  0
   -6.9199   -4.5797    0.0000 C   0  0  0  0  0  0  0  0  0  0  0  0
   -7.2317   -6.0469    0.0000 O   0  0  0  0  0  0  0  0  0  0  0  0
   -5.4933   -4.1162    0.0000 C   0  0  0  0  0  0  0  0  0  0  0  0
   -5.1814   -2.6490    0.0000 C   0  0  0  0  0  0  0  0  0  0  0  0
   -3.7548   -2.1855    0.0000 C   0  0  0  0  0  0  0  0  0  0  0  0
   -2.6401   -3.1891    0.0000 C   0  0  0  0  0  0  0  0  0  0  0  0
   -1.2135   -2.7256    0.0000 N   0  0  0  0  0  0  0  0  0  0  0  0
   -0.0000   -3.6073    0.0000 C   0  0  0  0  0  0  0  0  0  0  0  0
   -0.0000   -5.1073    0.0000 N   0  0  0  0  0  0  0  0  0  0  0  0
    1.2990   -5.8573    0.0000 C   0  0  0  0  0  0  0  0  0  0  0  0
    2.5981   -5.1073    0.0000 O   0  0  0  0  0  0  0  0  0  0  0  0
    1.2990   -7.3573    0.0000 C   0  0  0  0  0  0  0  0  0  0  0  0
   -0.0000   -8.1073    0.0000 C   0  0  0  0  0  0  0  0  0  0  0  0
   -0.0000   -9.6073    0.0000 C   0  0  0  0  0  0  0  0  0  0  0  0
    1.2990  -10.3573    0.0000 C   0  0  0  0  0  0  0  0  0  0  0  0
    1.2990  -11.8573    0.0000 F   0  0  0  0  0  0  0  0  0  0  0  0
    2.5981   -9.6073    0.0000 C   0  0  0  0  0  0  0  0  0  0  0  0
    2.5981   -8.1073    0.0000 C   0  0  0  0  0  0  0  0  0  0  0  0
    1.2135   -2.7256    0.0000 N   0  0  0  0  0  0  0  0  0  0  0  0
    0.7500   -1.2990    0.0000 C   0  0  0  0  0  0  0  0  0  0  0  0
    1.5000    0.0000    0.0000 C   0  0  0  0  0  0  0  0  0  0  0  0
    0.7500    1.2990    0.0000 C   0  0  0  0  0  0  0  0  0  0  0  0
   -0.7500    1.2990    0.0000 C   0  0  0  0  0  0  0  0  0  0  0  0
   -1.5000    2.5981    0.0000 C   0  0  0  0  0  0  0  0  0  0  0  0
   -0.7500    3.8971    0.0000 N   0  0  0  0  0  0  0  0  0  0  0  0
    0.7500    3.8971    0.0000 C   0  0  0  0  0  0  0  0  0  0  0  0
    1.5000    5.1962    0.0000 C   0  0  0  0  0  0  0  0  0  0  0  0
    0.7500    6.4952    0.0000 C   0  0  0  0  0  0  0  0  0  0  0  0
    1.5000    7.7942    0.0000 C   0  0  0  0  0  0  0  0  0  0  0  0
    3.0000    7.7942    0.0000 N   0  0  0  0  0  0  0  0  0  0  0  0
    0.7500    9.0933    0.0000 O   0  0  0  0  0  0  0  0  0  0  0  0
   -0.7500    6.4952    0.0000 C   0  0  0  0  0  0  0  0  0  0  0  0
   -1.5000    5.1962    0.0000 C   0  0  0  0  0  0  0  0  0  0  0  0
   -1.5000    0.0000    0.0000 C   0  0  0  0  0  0  0  0  0  0  0  0
   -0.7500   -1.2990    0.0000 C   0  0  0  0  0  0  0  0  0  0  0  0
   -2.9520   -4.6564    0.0000 C   0  0  0  0  0  0  0  0  0  0  0  0
   -4.3786   -5.1199    0.0000 C   0  0  0  0  0  0  0  0  0  0  0  0
  1  2  1  0
  2  3  1  0
  2  4  1  0
  4  5  1  0
  5  6  2  0
  7  5  1  1
  7  8  1  0
  8  9  1  0
  9 10  1  0
 10 11  1  1
 11 12  1  0
 12 13  2  0
 13 14  1  0
 14 15  2  0
 14 16  1  0
 16 17  2  0
 17 18  1  0
 18 19  2  0
 19 20  1  0
 19 21  1  0
 21 22  2  0
 12 23  1  0
 23 24  1  0
 24 25  2  0
 25 26  1  0
 26 27  2  0
 27 28  1  0
 28 29  1  0
 29 30  1  0
 30 31  1  0
 31 32  1  0
 32 33  1  0
 33 34  1  0
 33 35  2  0
 32 36  1  0
 36 37  1  0
 27 38  1  0
 38 39  2  0
 10 40  1  0
 40 41  1  0
 41  7  1  0
 39 11  1  0
 22 16  1  0
 39 24  1  0
 37 29  1  0
M  END
>  <Compound_ID>  (68) 
CHEMBL2172306

>  <Molecule Name>  (68) 
nan

>  <Molecular Weight>  (68) 
562.69

>  <AlogP>  (68) 
3.80

>  <Smiles>  (68) 
CC(C)NC(=O)[C@H]1CC[C@@H](n2/c(=N/C(=O)c3ccc(F)cc3)[nH]c3ccc(CN4CCC(C(N)=O)CC4)cc32)CC1

>  <Standard Type>  (68) 
IC50

>  <Standard Relation>  (68) 
'='

>  <Standard Units>  (68) 
nM

>  <Standard Value>  (68) 
1.4

>  <Assay ChEMBL ID>  (68) 
CHEMBL2176371

>  <Assay Description>  (68) 
Inhibition of ALK enzyme

>  <BAO Format ID>  (68) 
BAO_0000357

>  <BAO Label>  (68) 
single protein format

>  <Assay Organism>  (68) 
None

>  <Target ChEMBL ID>  (68) 
CHEMBL4247

>  <Target Name>  (68) 
ALK tyrosine kinase receptor

>  <Target Organism>  (68) 
Homo sapiens

>  <Target Type>  (68) 
SINGLE PROTEIN

>  <Document ChEMBL ID>  (68) 
CHEMBL2169770

>  <Source Description>  (68) 
Scientific Literature

>  <Document Journal>  (68) 
J Med Chem

>  <Document Year>  (68) 
2012.0

>  <Active>  (68) 
1.0

>  <bits>  (68) 
<rdkit.DataStructs.cDataStructs.ExplicitBitVect object at 0x000002422F1E0E40>

>  <Group>  (68) 
G2

$$$$

     RDKit          2D

 40 44  0  0  0  0  0  0  0  0999 V2000
  -10.5759   -3.0359    0.0000 C   0  0  0  0  0  0  0  0  0  0  0  0
   -9.4612   -4.0396    0.0000 C   0  0  0  0  0  0  0  0  0  0  0  0
   -9.7730   -5.5068    0.0000 C   0  0  0  0  0  0  0  0  0  0  0  0
   -8.0346   -3.5760    0.0000 N   0  0  0  0  0  0  0  0  0  0  0  0
   -6.9199   -4.5797    0.0000 C   0  0  0  0  0  0  0  0  0  0  0  0
   -7.2317   -6.0469    0.0000 O   0  0  0  0  0  0  0  0  0  0  0  0
   -5.4933   -4.1162    0.0000 C   0  0  0  0  0  0  0  0  0  0  0  0
   -5.1814   -2.6490    0.0000 C   0  0  0  0  0  0  0  0  0  0  0  0
   -3.7548   -2.1855    0.0000 C   0  0  0  0  0  0  0  0  0  0  0  0
   -2.6401   -3.1891    0.0000 C   0  0  0  0  0  0  0  0  0  0  0  0
   -1.2135   -2.7256    0.0000 N   0  0  0  0  0  0  0  0  0  0  0  0
   -0.0000   -3.6073    0.0000 C   0  0  0  0  0  0  0  0  0  0  0  0
   -0.0000   -5.1073    0.0000 N   0  0  0  0  0  0  0  0  0  0  0  0
    1.2990   -5.8573    0.0000 C   0  0  0  0  0  0  0  0  0  0  0  0
    2.5981   -5.1073    0.0000 O   0  0  0  0  0  0  0  0  0  0  0  0
    1.2990   -7.3573    0.0000 C   0  0  0  0  0  0  0  0  0  0  0  0
   -0.0000   -8.1073    0.0000 C   0  0  0  0  0  0  0  0  0  0  0  0
   -0.0000   -9.6073    0.0000 C   0  0  0  0  0  0  0  0  0  0  0  0
    1.2990  -10.3573    0.0000 C   0  0  0  0  0  0  0  0  0  0  0  0
    1.2990  -11.8573    0.0000 F   0  0  0  0  0  0  0  0  0  0  0  0
    2.5981   -9.6073    0.0000 C   0  0  0  0  0  0  0  0  0  0  0  0
    2.5981   -8.1073    0.0000 C   0  0  0  0  0  0  0  0  0  0  0  0
    1.2135   -2.7256    0.0000 N   0  0  0  0  0  0  0  0  0  0  0  0
    0.7500   -1.2990    0.0000 C   0  0  0  0  0  0  0  0  0  0  0  0
    1.5000    0.0000    0.0000 C   0  0  0  0  0  0  0  0  0  0  0  0
    0.7500    1.2990    0.0000 C   0  0  0  0  0  0  0  0  0  0  0  0
   -0.7500    1.2990    0.0000 C   0  0  0  0  0  0  0  0  0  0  0  0
   -1.5000    2.5981    0.0000 C   0  0  0  0  0  0  0  0  0  0  0  0
   -0.7500    3.8971    0.0000 N   0  0  0  0  0  0  0  0  0  0  0  0
    0.7500    3.8971    0.0000 C   0  0  0  0  0  0  0  0  0  0  0  0
    1.5000    5.1962    0.0000 C   0  0  0  0  0  0  0  0  0  0  0  0
    0.7500    6.4952    0.0000 C   0  0  0  0  0  0  0  0  0  0  0  0
    1.5000    7.7942    0.0000 C   0  0  0  0  0  0  0  0  0  0  0  0
    3.0000    7.7942    0.0000 N   0  0  0  0  0  0  0  0  0  0  0  0
   -0.7500    6.4952    0.0000 C   0  0  0  0  0  0  0  0  0  0  0  0
   -1.5000    5.1962    0.0000 C   0  0  0  0  0  0  0  0  0  0  0  0
   -1.5000    0.0000    0.0000 C   0  0  0  0  0  0  0  0  0  0  0  0
   -0.7500   -1.2990    0.0000 C   0  0  0  0  0  0  0  0  0  0  0  0
   -2.9520   -4.6564    0.0000 C   0  0  0  0  0  0  0  0  0  0  0  0
   -4.3786   -5.1199    0.0000 C   0  0  0  0  0  0  0  0  0  0  0  0
  1  2  1  0
  2  3  1  0
  2  4  1  0
  4  5  1  0
  5  6  2  0
  7  5  1  1
  7  8  1  0
  8  9  1  0
  9 10  1  0
 10 11  1  1
 11 12  1  0
 12 13  2  0
 13 14  1  0
 14 15  2  0
 14 16  1  0
 16 17  2  0
 17 18  1  0
 18 19  2  0
 19 20  1  0
 19 21  1  0
 21 22  2  0
 12 23  1  0
 23 24  1  0
 24 25  2  0
 25 26  1  0
 26 27  2  0
 27 28  1  0
 28 29  1  0
 29 30  1  0
 30 31  1  0
 31 32  1  0
 32 33  1  0
 33 34  1  0
 32 35  1  0
 35 36  1  0
 27 37  1  0
 37 38  2  0
 10 39  1  0
 39 40  1  0
 40  7  1  0
 38 11  1  0
 22 16  1  0
 38 24  1  0
 36 29  1  0
M  END
>  <Compound_ID>  (69) 
CHEMBL2172335

>  <Molecule Name>  (69) 
nan

>  <Molecular Weight>  (69) 
548.71

>  <AlogP>  (69) 
4.28

>  <Smiles>  (69) 
CC(C)NC(=O)[C@H]1CC[C@@H](n2/c(=N/C(=O)c3ccc(F)cc3)[nH]c3ccc(CN4CCC(CN)CC4)cc32)CC1

>  <Standard Type>  (69) 
IC50

>  <Standard Relation>  (69) 
'='

>  <Standard Units>  (69) 
nM

>  <Standard Value>  (69) 
1.2

>  <Assay ChEMBL ID>  (69) 
CHEMBL2176371

>  <Assay Description>  (69) 
Inhibition of ALK enzyme

>  <BAO Format ID>  (69) 
BAO_0000357

>  <BAO Label>  (69) 
single protein format

>  <Assay Organism>  (69) 
None

>  <Target ChEMBL ID>  (69) 
CHEMBL4247

>  <Target Name>  (69) 
ALK tyrosine kinase receptor

>  <Target Organism>  (69) 
Homo sapiens

>  <Target Type>  (69) 
SINGLE PROTEIN

>  <Document ChEMBL ID>  (69) 
CHEMBL2169770

>  <Source Description>  (69) 
Scientific Literature

>  <Document Journal>  (69) 
J Med Chem

>  <Document Year>  (69) 
2012.0

>  <Active>  (69) 
1.0

>  <bits>  (69) 
<rdkit.DataStructs.cDataStructs.ExplicitBitVect object at 0x000002422F1E0D60>

>  <Group>  (69) 
G2

$$$$

     RDKit          2D

 27 30  0  0  0  0  0  0  0  0999 V2000
   -8.2322   -0.7949    0.0000 C   0  0  0  0  0  0  0  0  0  0  0  0
   -6.8056   -1.2584    0.0000 N   0  0  0  0  0  0  0  0  0  0  0  0
   -5.6909   -0.2547    0.0000 C   0  0  0  0  0  0  0  0  0  0  0  0
   -6.0028    1.2125    0.0000 C   0  0  0  0  0  0  0  0  0  0  0  0
   -4.8880    2.2162    0.0000 O   0  0  0  0  0  0  0  0  0  0  0  0
   -6.4937   -2.7256    0.0000 C   0  0  0  0  0  0  0  0  0  0  0  0
   -5.0672   -3.1891    0.0000 C   0  0  0  0  0  0  0  0  0  0  0  0
   -4.6036   -4.6157    0.0000 C   0  0  0  0  0  0  0  0  0  0  0  0
   -3.1036   -4.6157    0.0000 C   0  0  0  0  0  0  0  0  0  0  0  0
   -2.6401   -3.1891    0.0000 C   0  0  0  0  0  0  0  0  0  0  0  0
   -1.2135   -2.7256    0.0000 C   0  0  0  0  0  0  0  0  0  0  0  0
   -0.0000   -3.6073    0.0000 N   0  0  0  0  0  0  0  0  0  0  0  0
    1.2135   -2.7256    0.0000 N   0  0  0  0  0  0  0  0  0  0  0  0
    0.7500   -1.2990    0.0000 C   0  0  0  0  0  0  0  0  0  0  0  0
    1.5000    0.0000    0.0000 N   0  0  0  0  0  0  0  0  0  0  0  0
    0.7500    1.2990    0.0000 C   0  0  0  0  0  0  0  0  0  0  0  0
    1.5000    2.5981    0.0000 C   0  0  0  0  0  0  0  0  0  0  0  0
    3.0000    2.5981    0.0000 C   0  0  0  0  0  0  0  0  0  0  0  0
    3.7500    3.8971    0.0000 C   0  0  0  0  0  0  0  0  0  0  0  0
    3.0000    5.1962    0.0000 C   0  0  0  0  0  0  0  0  0  0  0  0
    3.7500    6.4952    0.0000 O   0  0  0  0  0  0  0  0  0  0  0  0
    1.5000    5.1962    0.0000 C   0  0  0  0  0  0  0  0  0  0  0  0
    0.7500    3.8971    0.0000 C   0  0  0  0  0  0  0  0  0  0  0  0
   -0.7500    1.2990    0.0000 C   0  0  0  0  0  0  0  0  0  0  0  0
   -1.5000    0.0000    0.0000 C   0  0  0  0  0  0  0  0  0  0  0  0
   -0.7500   -1.2990    0.0000 C   0  0  0  0  0  0  0  0  0  0  0  0
   -3.8536   -2.3075    0.0000 O   0  0  0  0  0  0  0  0  0  0  0  0
  1  2  1  0
  2  3  1  0
  3  4  1  0
  4  5  1  0
  2  6  1  0
  6  7  1  0
  7  8  2  0
  8  9  1  0
  9 10  2  0
 10 11  1  0
 11 12  2  0
 12 13  1  0
 13 14  1  0
 14 15  2  0
 15 16  1  0
 16 17  1  0
 17 18  2  0
 18 19  1  0
 19 20  2  0
 20 21  1  0
 20 22  1  0
 22 23  2  0
 16 24  2  0
 24 25  1  0
 25 26  2  0
 10 27  1  0
 27  7  1  0
 26 11  1  0
 26 14  1  0
 23 17  1  0
M  END
>  <Compound_ID>  (70) 
CHEMBL4524160

>  <Molecule Name>  (70) 
nan

>  <Molecular Weight>  (70) 
364.41

>  <AlogP>  (70) 
3.01

>  <Smiles>  (70) 
CN(CCO)Cc1ccc(-c2n[nH]c3nc(-c4ccc(O)cc4)ccc23)o1

>  <Standard Type>  (70) 
IC50

>  <Standard Relation>  (70) 
'='

>  <Standard Units>  (70) 
nM

>  <Standard Value>  (70) 
83.15

>  <Assay ChEMBL ID>  (70) 
CHEMBL4370936

>  <Assay Description>  (70) 
Inhibition of recombinant ALK (unknown origin) using peptide substrate measured after 1 hr by LanthaScreen assay

>  <BAO Format ID>  (70) 
BAO_0000357

>  <BAO Label>  (70) 
single protein format

>  <Assay Organism>  (70) 
Homo sapiens

>  <Target ChEMBL ID>  (70) 
CHEMBL4247

>  <Target Name>  (70) 
ALK tyrosine kinase receptor

>  <Target Organism>  (70) 
Homo sapiens

>  <Target Type>  (70) 
SINGLE PROTEIN

>  <Document ChEMBL ID>  (70) 
CHEMBL4368941

>  <Source Description>  (70) 
Scientific Literature

>  <Document Journal>  (70) 
Bioorg Med Chem Lett

>  <Document Year>  (70) 
2019.0

>  <Active>  (70) 
1.0

>  <bits>  (70) 
<rdkit.DataStructs.cDataStructs.ExplicitBitVect object at 0x000002422F1E07B0>

>  <Group>  (70) 
G2

$$$$

     RDKit          2D

 45 48  0  0  0  0  0  0  0  0999 V2000
   -3.7500    3.8971    0.0000 C   0  0  0  0  0  0  0  0  0  0  0  0
   -2.2500    3.8971    0.0000 C   0  0  0  0  0  0  0  0  0  0  0  0
   -1.5000    5.1962    0.0000 C   0  0  0  0  0  0  0  0  0  0  0  0
   -1.5000    2.5981    0.0000 S   0  0  0  0  0  0  0  0  0  0  0  0
   -0.2010    3.3481    0.0000 O   0  0  0  0  0  0  0  0  0  0  0  0
   -2.7990    1.8481    0.0000 O   0  0  0  0  0  0  0  0  0  0  0  0
   -0.7500    1.2990    0.0000 C   0  0  0  0  0  0  0  0  0  0  0  0
   -1.5000   -0.0000    0.0000 C   0  0  0  0  0  0  0  0  0  0  0  0
   -0.7500   -1.2990    0.0000 C   0  0  0  0  0  0  0  0  0  0  0  0
    0.7500   -1.2990    0.0000 C   0  0  0  0  0  0  0  0  0  0  0  0
    1.5000   -0.0000    0.0000 C   0  0  0  0  0  0  0  0  0  0  0  0
    0.7500    1.2990    0.0000 C   0  0  0  0  0  0  0  0  0  0  0  0
    1.5000    2.5981    0.0000 N   0  0  0  0  0  0  0  0  0  0  0  0
    3.0000    2.5981    0.0000 C   0  0  0  0  0  0  0  0  0  0  0  0
    3.7500    1.2990    0.0000 N   0  0  0  0  0  0  0  0  0  0  0  0
    5.2500    1.2990    0.0000 C   0  0  0  0  0  0  0  0  0  0  0  0
    6.0000   -0.0000    0.0000 N   0  0  0  0  0  0  0  0  0  0  0  0
    7.5000   -0.0000    0.0000 C   0  0  0  0  0  0  0  0  0  0  0  0
    8.2500   -1.2990    0.0000 C   0  0  0  0  0  0  0  0  0  0  0  0
    9.7500   -1.2990    0.0000 C   0  0  0  0  0  0  0  0  0  0  0  0
   10.5000   -0.0000    0.0000 C   0  0  0  0  0  0  0  0  0  0  0  0
    9.7500    1.2990    0.0000 C   0  0  0  0  0  0  0  0  0  0  0  0
   10.5000    2.5981    0.0000 N   0  0  0  0  0  0  0  0  0  0  0  0
   12.0000    2.5981    0.0000 C   0  0  0  0  0  0  0  0  0  0  0  0
   12.7500    1.2990    0.0000 O   0  0  0  0  0  0  0  0  0  0  0  0
   12.7500    3.8971    0.0000 C   0  0  0  0  0  0  0  0  0  0  0  0
   14.2500    3.8971    0.0000 N   0  0  0  0  0  0  0  0  0  0  0  0
   15.0000    2.5981    0.0000 C   0  0  0  0  0  0  0  0  0  0  0  0
   16.5000    2.5981    0.0000 C   0  0  0  0  0  0  0  0  0  0  0  0
   17.2500    3.8971    0.0000 N   0  0  0  0  0  0  0  0  0  0  0  0
   18.7500    3.8971    0.0000 C   0  0  0  0  0  0  0  0  0  0  0  0
   19.5000    5.1962    0.0000 O   0  0  0  0  0  0  0  0  0  0  0  0
   19.5000    2.5981    0.0000 C   0  0  0  0  0  0  0  0  0  0  0  0
   21.0000    2.5981    0.0000 C   0  0  0  0  0  0  0  0  0  0  0  0
   21.7500    1.2990    0.0000 C   0  0  0  0  0  0  0  0  0  0  0  0
   23.2500    1.2990    0.0000 N   0  0  0  0  0  0  0  0  0  0  0  0
   24.0000   -0.0000    0.0000 C   0  0  0  0  0  0  0  0  0  0  0  0
   24.0000    2.5981    0.0000 C   0  0  0  0  0  0  0  0  0  0  0  0
   16.5000    5.1962    0.0000 C   0  0  0  0  0  0  0  0  0  0  0  0
   15.0000    5.1962    0.0000 C   0  0  0  0  0  0  0  0  0  0  0  0
    8.2500    1.2990    0.0000 C   0  0  0  0  0  0  0  0  0  0  0  0
    6.0000    2.5981    0.0000 N   0  0  0  0  0  0  0  0  0  0  0  0
    5.2500    3.8971    0.0000 C   0  0  0  0  0  0  0  0  0  0  0  0
    3.7500    3.8971    0.0000 C   0  0  0  0  0  0  0  0  0  0  0  0
    3.0000    5.1962    0.0000 Cl  0  0  0  0  0  0  0  0  0  0  0  0
  1  2  1  0
  2  3  1  0
  2  4  1  0
  4  5  2  0
  4  6  2  0
  4  7  1  0
  7  8  2  0
  8  9  1  0
  9 10  2  0
 10 11  1  0
 11 12  2  0
 12 13  1  0
 13 14  1  0
 14 15  2  0
 15 16  1  0
 16 17  1  0
 17 18  1  0
 18 19  2  0
 19 20  1  0
 20 21  2  0
 21 22  1  0
 22 23  1  0
 23 24  1  0
 24 25  2  0
 24 26  1  0
 26 27  1  0
 27 28  1  0
 28 29  1  0
 29 30  1  0
 30 31  1  0
 31 32  2  0
 31 33  1  0
 33 34  2  0
 34 35  1  0
 35 36  1  0
 36 37  1  0
 36 38  1  0
 30 39  1  0
 39 40  1  0
 22 41  2  0
 16 42  2  0
 42 43  1  0
 43 44  2  0
 44 45  1  0
 12  7  1  0
 44 14  1  0
 41 18  1  0
 40 27  1  0
M  END
>  <Compound_ID>  (71) 
CHEMBL3357458

>  <Molecule Name>  (71) 
nan

>  <Molecular Weight>  (71) 
655.22

>  <AlogP>  (71) 
4.00

>  <Smiles>  (71) 
CC(C)S(=O)(=O)c1ccccc1Nc1nc(Nc2cccc(NC(=O)CN3CCN(C(=O)/C=C/CN(C)C)CC3)c2)ncc1Cl

>  <Standard Type>  (71) 
IC50

>  <Standard Relation>  (71) 
'='

>  <Standard Units>  (71) 
nM

>  <Standard Value>  (71) 
0.7

>  <Assay ChEMBL ID>  (71) 
CHEMBL3364272

>  <Assay Description>  (71) 
Inhibition of ALK (unknown origin) after 60 mins by ELISA

>  <BAO Format ID>  (71) 
BAO_0000357

>  <BAO Label>  (71) 
single protein format

>  <Assay Organism>  (71) 
Homo sapiens

>  <Target ChEMBL ID>  (71) 
CHEMBL4247

>  <Target Name>  (71) 
ALK tyrosine kinase receptor

>  <Target Organism>  (71) 
Homo sapiens

>  <Target Type>  (71) 
SINGLE PROTEIN

>  <Document ChEMBL ID>  (71) 
CHEMBL3351234

>  <Source Description>  (71) 
Scientific Literature

>  <Document Journal>  (71) 
J Med Chem

>  <Document Year>  (71) 
2015.0

>  <Active>  (71) 
1.0

>  <bits>  (71) 
<rdkit.DataStructs.cDataStructs.ExplicitBitVect object at 0x000002422F1E35A0>

>  <Group>  (71) 
G2

$$$$

     RDKit          2D

 40 44  0  0  0  0  0  0  0  0999 V2000
    3.7500   -6.4952    0.0000 C   0  0  0  0  0  0  0  0  0  0  0  0
    3.0000   -5.1962    0.0000 O   0  0  0  0  0  0  0  0  0  0  0  0
    1.5000   -5.1962    0.0000 C   0  0  0  0  0  0  0  0  0  0  0  0
    0.7500   -6.4952    0.0000 C   0  0  0  0  0  0  0  0  0  0  0  0
   -0.7500   -6.4952    0.0000 C   0  0  0  0  0  0  0  0  0  0  0  0
   -1.5000   -7.7942    0.0000 N   0  0  0  0  0  0  0  0  0  0  0  0
   -3.0000   -7.7942    0.0000 C   0  0  0  0  0  0  0  0  0  0  0  0
   -3.7500   -9.0933    0.0000 C   0  0  0  0  0  0  0  0  0  0  0  0
   -3.0000  -10.3923    0.0000 N   0  0  0  0  0  0  0  0  0  0  0  0
   -3.7500  -11.6913    0.0000 C   0  0  0  0  0  0  0  0  0  0  0  0
   -5.2500  -11.6913    0.0000 C   0  0  0  0  0  0  0  0  0  0  0  0
   -6.0000  -12.9904    0.0000 C   0  0  0  0  0  0  0  0  0  0  0  0
   -6.0000  -10.3923    0.0000 O   0  0  0  0  0  0  0  0  0  0  0  0
   -1.5000  -10.3923    0.0000 C   0  0  0  0  0  0  0  0  0  0  0  0
   -0.7500   -9.0933    0.0000 C   0  0  0  0  0  0  0  0  0  0  0  0
   -1.5000   -5.1962    0.0000 C   0  0  0  0  0  0  0  0  0  0  0  0
   -0.7500   -3.8971    0.0000 C   0  0  0  0  0  0  0  0  0  0  0  0
    0.7500   -3.8971    0.0000 C   0  0  0  0  0  0  0  0  0  0  0  0
    1.5000   -2.5981    0.0000 N   0  0  0  0  0  0  0  0  0  0  0  0
    0.7500   -1.2990    0.0000 C   0  0  0  0  0  0  0  0  0  0  0  0
    1.5000    0.0000    0.0000 N   0  0  0  0  0  0  0  0  0  0  0  0
    0.7500    1.2990    0.0000 C   0  0  0  0  0  0  0  0  0  0  0  0
   -0.7500    1.2990    0.0000 C   0  0  0  0  0  0  0  0  0  0  0  0
   -1.7537    2.4138    0.0000 C   0  0  0  0  0  0  0  0  0  0  0  0
   -3.1240    1.8037    0.0000 C   0  0  0  0  0  0  0  0  0  0  0  0
   -2.9672    0.3119    0.0000 C   0  0  0  0  0  0  0  0  0  0  0  0
   -4.0819   -0.6918    0.0000 C   0  0  0  0  0  0  0  0  0  0  0  0
   -3.7701   -2.1590    0.0000 C   0  0  0  0  0  0  0  0  0  0  0  0
   -4.8848   -3.1627    0.0000 C   0  0  0  0  0  0  0  0  0  0  0  0
   -6.3114   -2.6992    0.0000 C   0  0  0  0  0  0  0  0  0  0  0  0
   -6.6232   -1.2320    0.0000 C   0  0  0  0  0  0  0  0  0  0  0  0
   -5.5085   -0.2283    0.0000 C   0  0  0  0  0  0  0  0  0  0  0  0
   -5.8204    1.2389    0.0000 N   0  0  0  0  0  0  0  0  0  0  0  0
   -7.2470    1.7024    0.0000 C   0  0  0  0  0  0  0  0  0  0  0  0
   -4.7057    2.2426    0.0000 S   0  0  0  0  0  0  0  0  0  0  0  0
   -3.5910    3.2463    0.0000 C   0  0  0  0  0  0  0  0  0  0  0  0
   -3.7020    1.1279    0.0000 O   0  0  0  0  0  0  0  0  0  0  0  0
   -5.7094    3.3573    0.0000 O   0  0  0  0  0  0  0  0  0  0  0  0
   -1.5000    0.0000    0.0000 N   0  0  0  0  0  0  0  0  0  0  0  0
   -0.7500   -1.2990    0.0000 N   0  0  0  0  0  0  0  0  0  0  0  0
  1  2  1  0
  2  3  1  0
  3  4  2  0
  4  5  1  0
  5  6  1  0
  6  7  1  0
  7  8  1  0
  8  9  1  0
  9 10  1  0
 10 11  1  0
 11 12  1  1
 11 13  1  0
  9 14  1  0
 14 15  1  0
  5 16  2  0
 16 17  1  0
 17 18  2  0
 18 19  1  0
 19 20  1  0
 20 21  1  0
 21 22  2  0
 22 23  1  0
 23 24  2  0
 24 25  1  0
 25 26  2  0
 26 27  1  0
 27 28  2  0
 28 29  1  0
 29 30  2  0
 30 31  1  0
 31 32  2  0
 32 33  1  0
 33 34  1  0
 33 35  1  0
 35 36  1  0
 35 37  2  0
 35 38  2  0
 26 39  1  0
 39 40  1  0
 18  3  1  0
 40 20  2  0
 15  6  1  0
 39 23  1  0
 32 27  1  0
M  END
>  <Compound_ID>  (72) 
CHEMBL1822526

>  <Molecule Name>  (72) 
nan

>  <Molecular Weight>  (72) 
565.7

>  <AlogP>  (72) 
3.05

>  <Smiles>  (72) 
COc1cc(N2CCN(C[C@@H](C)O)CC2)ccc1Nc1ncc2ccc(-c3ccccc3N(C)S(C)(=O)=O)n2n1

>  <Standard Type>  (72) 
IC50

>  <Standard Relation>  (72) 
'='

>  <Standard Units>  (72) 
nM

>  <Standard Value>  (72) 
15.0

>  <Assay ChEMBL ID>  (72) 
CHEMBL1825977

>  <Assay Description>  (72) 
Inhibition of human recombinant ALK assessed as phosphorylated product using PLC-gamma/GST substrate by modified ELISA method

>  <BAO Format ID>  (72) 
BAO_0000357

>  <BAO Label>  (72) 
single protein format

>  <Assay Organism>  (72) 
Homo sapiens

>  <Target ChEMBL ID>  (72) 
CHEMBL4247

>  <Target Name>  (72) 
ALK tyrosine kinase receptor

>  <Target Organism>  (72) 
Homo sapiens

>  <Target Type>  (72) 
SINGLE PROTEIN

>  <Document ChEMBL ID>  (72) 
CHEMBL1821719

>  <Source Description>  (72) 
Scientific Literature

>  <Document Journal>  (72) 
J Med Chem

>  <Document Year>  (72) 
2011.0

>  <Active>  (72) 
1.0

>  <bits>  (72) 
<rdkit.DataStructs.cDataStructs.ExplicitBitVect object at 0x000002422F1E3A00>

>  <Group>  (72) 
G2

$$$$

     RDKit          2D

 33 38  0  0  0  0  0  0  0  0999 V2000
   -8.2574    0.4549    0.0000 N   0  0  0  0  0  0  0  0  0  0  0  0
   -6.7656    0.6117    0.0000 C   0  0  0  0  0  0  0  0  0  0  0  0
   -5.8840   -0.6018    0.0000 O   0  0  0  0  0  0  0  0  0  0  0  0
   -6.1555    1.9820    0.0000 C   0  0  0  0  0  0  0  0  0  0  0  0
   -4.6883    2.2939    0.0000 C   0  0  0  0  0  0  0  0  0  0  0  0
   -3.5736    1.2902    0.0000 N   0  0  0  0  0  0  0  0  0  0  0  0
   -2.1470    1.7537    0.0000 C   0  0  0  0  0  0  0  0  0  0  0  0
   -1.8351    3.2209    0.0000 C   0  0  0  0  0  0  0  0  0  0  0  0
   -2.9499    4.2246    0.0000 Cl  0  0  0  0  0  0  0  0  0  0  0  0
   -0.4086    3.6844    0.0000 C   0  0  0  0  0  0  0  0  0  0  0  0
    0.7062    2.6807    0.0000 N   0  0  0  0  0  0  0  0  0  0  0  0
    0.3943    1.2135    0.0000 C   0  0  0  0  0  0  0  0  0  0  0  0
    1.2760    0.0000    0.0000 N   0  0  0  0  0  0  0  0  0  0  0  0
    0.3943   -1.2135    0.0000 C   0  0  0  0  0  0  0  0  0  0  0  0
    0.8578   -2.6401    0.0000 C   0  0  0  0  0  0  0  0  0  0  0  0
   -0.1459   -3.7548    0.0000 C   0  0  0  0  0  0  0  0  0  0  0  0
    0.3177   -5.1814    0.0000 C   0  0  0  0  0  0  0  0  0  0  0  0
    1.7849   -5.4933    0.0000 C   0  0  0  0  0  0  0  0  0  0  0  0
    2.7886   -4.3786    0.0000 C   0  0  0  0  0  0  0  0  0  0  0  0
    4.2558   -4.6904    0.0000 N   0  0  0  0  0  0  0  0  0  0  0  0
    4.7193   -6.1170    0.0000 C   0  0  0  0  0  0  0  0  0  0  0  0
    6.1865   -6.4289    0.0000 C   0  0  0  0  0  0  0  0  0  0  0  0
    7.1902   -5.3142    0.0000 O   0  0  0  0  0  0  0  0  0  0  0  0
    6.7267   -3.8876    0.0000 C   0  0  0  0  0  0  0  0  0  0  0  0
    5.2595   -3.5757    0.0000 C   0  0  0  0  0  0  0  0  0  0  0  0
    2.3250   -2.9520    0.0000 C   0  0  0  0  0  0  0  0  0  0  0  0
   -1.0323   -0.7500    0.0000 N   0  0  0  0  0  0  0  0  0  0  0  0
   -1.0323    0.7500    0.0000 C   0  0  0  0  0  0  0  0  0  0  0  0
   -4.5315    3.7856    0.0000 C   0  0  0  0  0  0  0  0  0  0  0  0
   -5.2815    5.0847    0.0000 C   0  0  0  0  0  0  0  0  0  0  0  0
   -6.7487    4.7728    0.0000 C   0  0  0  0  0  0  0  0  0  0  0  0
   -6.9055    3.2810    0.0000 C   0  0  0  0  0  0  0  0  0  0  0  0
   -5.5352    2.6709    0.0000 C   0  0  0  0  0  0  0  0  0  0  0  0
  1  2  1  0
  2  3  2  0
  4  2  1  1
  4  5  1  0
  5  6  1  1
  6  7  1  0
  7  8  1  0
  8  9  1  0
  8 10  2  0
 10 11  1  0
 11 12  2  0
 12 13  1  0
 13 14  1  0
 14 15  1  0
 15 16  2  0
 16 17  1  0
 17 18  2  0
 18 19  1  0
 19 20  1  0
 20 21  1  0
 21 22  1  0
 22 23  1  0
 23 24  1  0
 24 25  1  0
 19 26  2  0
 14 27  2  0
 27 28  1  0
  5 29  1  0
 29 30  1  6
 30 31  2  0
 32 31  1  6
 32 33  1  0
 32  4  1  0
 28  7  2  0
 33 29  1  0
 28 12  1  0
 26 15  1  0
 25 20  1  0
M  END
>  <Compound_ID>  (73) 
CHEMBL3218849

>  <Molecule Name>  (73) 
nan

>  <Molecular Weight>  (73) 
464.96

>  <AlogP>  (73) 
3.20

>  <Smiles>  (73) 
NC(=O)[C@@H]1[C@H](Nc2c(Cl)cnc3[nH]c(-c4cccc(N5CCOCC5)c4)nc23)[C@H]2C=C[C@@H]1C2

>  <Standard Type>  (73) 
IC50

>  <Standard Relation>  (73) 
'='

>  <Standard Units>  (73) 
nM

>  <Standard Value>  (73) 
85.0

>  <Assay ChEMBL ID>  (73) 
CHEMBL3226250

>  <Assay Description>  (73) 
Inhibition of ALK (unknown origin)

>  <BAO Format ID>  (73) 
BAO_0000357

>  <BAO Label>  (73) 
single protein format

>  <Assay Organism>  (73) 
Homo sapiens

>  <Target ChEMBL ID>  (73) 
CHEMBL4247

>  <Target Name>  (73) 
ALK tyrosine kinase receptor

>  <Target Organism>  (73) 
Homo sapiens

>  <Target Type>  (73) 
SINGLE PROTEIN

>  <Document ChEMBL ID>  (73) 
CHEMBL3217622

>  <Source Description>  (73) 
Scientific Literature

>  <Document Journal>  (73) 
Medchemcomm

>  <Document Year>  (73) 
2012.0

>  <Active>  (73) 
1.0

>  <bits>  (73) 
<rdkit.DataStructs.cDataStructs.ExplicitBitVect object at 0x000002422F1E2880>

>  <Group>  (73) 
G2

$$$$

     RDKit          2D

 35 39  0  0  0  0  0  0  0  0999 V2000
    3.7500   -6.4952    0.0000 C   0  0  0  0  0  0  0  0  0  0  0  0
    3.0000   -5.1962    0.0000 O   0  0  0  0  0  0  0  0  0  0  0  0
    1.5000   -5.1962    0.0000 C   0  0  0  0  0  0  0  0  0  0  0  0
    0.7500   -6.4952    0.0000 C   0  0  0  0  0  0  0  0  0  0  0  0
   -0.7500   -6.4952    0.0000 C   0  0  0  0  0  0  0  0  0  0  0  0
   -1.5000   -7.7942    0.0000 C   0  0  0  0  0  0  0  0  0  0  0  0
   -3.0000   -7.7942    0.0000 C   0  0  0  0  0  0  0  0  0  0  0  0
   -3.7500   -9.0933    0.0000 C   0  0  0  0  0  0  0  0  0  0  0  0
   -3.0000  -10.3923    0.0000 N   0  0  0  0  0  0  0  0  0  0  0  0
   -3.7500  -11.6913    0.0000 C   0  0  0  0  0  0  0  0  0  0  0  0
   -1.5000  -10.3923    0.0000 C   0  0  0  0  0  0  0  0  0  0  0  0
   -0.7500   -9.0933    0.0000 C   0  0  0  0  0  0  0  0  0  0  0  0
   -1.5000   -5.1962    0.0000 C   0  0  0  0  0  0  0  0  0  0  0  0
   -3.0000   -5.1962    0.0000 C   0  0  0  0  0  0  0  0  0  0  0  0
   -0.7500   -3.8971    0.0000 C   0  0  0  0  0  0  0  0  0  0  0  0
    0.7500   -3.8971    0.0000 C   0  0  0  0  0  0  0  0  0  0  0  0
    1.5000   -2.5981    0.0000 N   0  0  0  0  0  0  0  0  0  0  0  0
    0.7500   -1.2990    0.0000 C   0  0  0  0  0  0  0  0  0  0  0  0
    1.5000    0.0000    0.0000 N   0  0  0  0  0  0  0  0  0  0  0  0
    0.7500    1.2990    0.0000 C   0  0  0  0  0  0  0  0  0  0  0  0
   -0.7500    1.2990    0.0000 C   0  0  0  0  0  0  0  0  0  0  0  0
   -1.7537    2.4138    0.0000 S   0  0  0  0  0  0  0  0  0  0  0  0
   -3.1240    1.8037    0.0000 C   0  0  0  0  0  0  0  0  0  0  0  0
   -4.4231    2.5537    0.0000 C   0  0  0  0  0  0  0  0  0  0  0  0
   -4.4231    4.0537    0.0000 N   0  0  0  0  0  0  0  0  0  0  0  0
   -5.7221    1.8037    0.0000 O   0  0  0  0  0  0  0  0  0  0  0  0
   -2.9672    0.3119    0.0000 C   0  0  0  0  0  0  0  0  0  0  0  0
   -4.0819   -0.6918    0.0000 C   0  0  0  0  0  0  0  0  0  0  0  0
   -5.5085   -0.2283    0.0000 C   0  0  0  0  0  0  0  0  0  0  0  0
   -6.6232   -1.2320    0.0000 C   0  0  0  0  0  0  0  0  0  0  0  0
   -6.3114   -2.6992    0.0000 C   0  0  0  0  0  0  0  0  0  0  0  0
   -4.8848   -3.1627    0.0000 C   0  0  0  0  0  0  0  0  0  0  0  0
   -3.7701   -2.1590    0.0000 C   0  0  0  0  0  0  0  0  0  0  0  0
   -1.5000    0.0000    0.0000 C   0  0  0  0  0  0  0  0  0  0  0  0
   -0.7500   -1.2990    0.0000 N   0  0  0  0  0  0  0  0  0  0  0  0
  1  2  1  0
  2  3  1  0
  3  4  2  0
  4  5  1  0
  5  6  1  0
  6  7  1  0
  7  8  1  0
  8  9  1  0
  9 10  1  0
  9 11  1  0
 11 12  1  0
  5 13  2  0
 13 14  1  0
 13 15  1  0
 15 16  2  0
 16 17  1  0
 17 18  1  0
 18 19  2  0
 19 20  1  0
 20 21  2  0
 21 22  1  0
 22 23  1  0
 23 24  1  0
 24 25  1  0
 24 26  2  0
 23 27  2  0
 27 28  1  0
 28 29  2  0
 29 30  1  0
 30 31  2  0
 31 32  1  0
 32 33  2  0
 27 34  1  0
 34 35  2  0
 16  3  1  0
 35 18  1  0
 12  6  1  0
 34 21  1  0
 33 28  1  0
M  END
>  <Compound_ID>  (74) 
CHEMBL3669135

>  <Molecule Name>  (74) 
nan

>  <Molecular Weight>  (74) 
487.63

>  <AlogP>  (74) 
5.33

>  <Smiles>  (74) 
COc1cc(C2CCN(C)CC2)c(C)cc1Nc1ncc2sc(C(N)=O)c(-c3ccccc3)c2n1

>  <Standard Type>  (74) 
IC50

>  <Standard Relation>  (74) 
'='

>  <Standard Units>  (74) 
nM

>  <Standard Value>  (74) 
14.0

>  <Assay ChEMBL ID>  (74) 
CHEMBL3705810

>  <Assay Description>  (74) 
In Vitro Inhibition Assay: The reagents used have the following composition: Enzyme buffer (EB): 50 mM HEPES (pH: 7.0) (Sigma H7523), 100 mM NaCl (Sigma S7653), NaN.sub.3 at 0.01% (Sigma S8032), BSA at 0.005% (Sigma A2153), 0.05 mM sodium orthovanadate (Calbiochem 567540). Detection buffer (DB): 50 mM HEPES (pH: 7.0), BSA at 0.1%, 0.8 M KF (Fluka 60239), 20 mM EDTA (Sigma E5134).The peptide used is the one described in Biochemistry, 2005, 44, 8533-8542; A-21-K(biotin)NH.sub.2, obtained from NeoMPS (reference SP081233). All the HTRF reagents Mab PT66-K (61T66KLB) and streptavidin-XL665 (610SAXLB), and the SEB reagent, are purchased from Cisbio.The test is carried out in a 384-well plate (Greiner 784076). The serial dilutions are carried out in pure DMSO, and then an intermediate one-in-three dilution in water is carried out, with 1 microliter of each concentration being distributed, all these operations being performed using the Zephyr apparatus (Caliper Life Sciences).

>  <BAO Format ID>  (74) 
BAO_0000357

>  <BAO Label>  (74) 
single protein format

>  <Assay Organism>  (74) 
Homo sapiens

>  <Target ChEMBL ID>  (74) 
CHEMBL4247

>  <Target Name>  (74) 
ALK tyrosine kinase receptor

>  <Target Organism>  (74) 
Homo sapiens

>  <Target Type>  (74) 
SINGLE PROTEIN

>  <Document ChEMBL ID>  (74) 
CHEMBL3639289

>  <Source Description>  (74) 
BindingDB Database

>  <Document Journal>  (74) 
nan

>  <Document Year>  (74) 
2015.0

>  <Active>  (74) 
1.0

>  <bits>  (74) 
<rdkit.DataStructs.cDataStructs.ExplicitBitVect object at 0x000002422F1E3370>

>  <Group>  (74) 
G2

$$$$

     RDKit          2D

 45 49  0  0  0  0  0  0  0  0999 V2000
    3.7500   -1.2990    0.0000 C   0  0  0  0  0  0  0  0  0  0  0  0
    3.0000    0.0000    0.0000 O   0  0  0  0  0  0  0  0  0  0  0  0
    1.5000    0.0000    0.0000 C   0  0  0  0  0  0  0  0  0  0  0  0
    0.7500   -1.2990    0.0000 C   0  0  0  0  0  0  0  0  0  0  0  0
   -0.7500   -1.2990    0.0000 C   0  0  0  0  0  0  0  0  0  0  0  0
   -1.5000   -2.5981    0.0000 N   0  0  0  0  0  0  0  0  0  0  0  0
   -3.0000   -2.5981    0.0000 C   0  0  0  0  0  0  0  0  0  0  0  0
   -3.7500   -3.8971    0.0000 C   0  0  0  0  0  0  0  0  0  0  0  0
   -3.0000   -5.1962    0.0000 N   0  0  0  0  0  0  0  0  0  0  0  0
   -3.7500   -6.4952    0.0000 S   0  0  0  0  0  0  0  0  0  0  0  0
   -4.5000   -7.7942    0.0000 C   0  0  0  0  0  0  0  0  0  0  0  0
   -2.4510   -7.2452    0.0000 O   0  0  0  0  0  0  0  0  0  0  0  0
   -5.0490   -5.7452    0.0000 O   0  0  0  0  0  0  0  0  0  0  0  0
   -1.5000   -5.1962    0.0000 C   0  0  0  0  0  0  0  0  0  0  0  0
   -0.7500   -3.8971    0.0000 C   0  0  0  0  0  0  0  0  0  0  0  0
   -1.5000    0.0000    0.0000 C   0  0  0  0  0  0  0  0  0  0  0  0
   -0.7500    1.2990    0.0000 C   0  0  0  0  0  0  0  0  0  0  0  0
    0.7500    1.2990    0.0000 C   0  0  0  0  0  0  0  0  0  0  0  0
    1.5000    2.5981    0.0000 N   0  0  0  0  0  0  0  0  0  0  0  0
    3.0000    2.5981    0.0000 C   0  0  0  0  0  0  0  0  0  0  0  0
    3.7500    1.2990    0.0000 N   0  0  0  0  0  0  0  0  0  0  0  0
    5.2500    1.2990    0.0000 C   0  0  0  0  0  0  0  0  0  0  0  0
    6.0000    2.5981    0.0000 C   0  0  0  0  0  0  0  0  0  0  0  0
    7.5000    2.5981    0.0000 Cl  0  0  0  0  0  0  0  0  0  0  0  0
    5.2500    3.8971    0.0000 C   0  0  0  0  0  0  0  0  0  0  0  0
    6.0000    5.1962    0.0000 N   0  0  0  0  0  0  0  0  0  0  0  0
    5.2500    6.4952    0.0000 C   0  0  0  0  0  0  0  0  0  0  0  0
    6.0000    7.7942    0.0000 C   0  0  0  0  0  0  0  0  0  0  0  0
    5.2500    9.0933    0.0000 C   0  0  0  0  0  0  0  0  0  0  0  0
    3.7500    9.0933    0.0000 C   0  0  0  0  0  0  0  0  0  0  0  0
    3.0000   10.3923    0.0000 N   0  0  0  0  0  0  0  0  0  0  0  0
    3.7500   11.6913    0.0000 C   0  0  0  0  0  0  0  0  0  0  0  0
    3.0000   12.9904    0.0000 C   0  0  0  0  0  0  0  0  0  0  0  0
    1.5000   12.9904    0.0000 N   0  0  0  0  0  0  0  0  0  0  0  0
    0.7500   14.2894    0.0000 S   0  0  0  0  0  0  0  0  0  0  0  0
    0.0000   15.5885    0.0000 C   0  0  0  0  0  0  0  0  0  0  0  0
   -0.5490   13.5394    0.0000 O   0  0  0  0  0  0  0  0  0  0  0  0
    2.0490   15.0394    0.0000 O   0  0  0  0  0  0  0  0  0  0  0  0
    0.7500   11.6913    0.0000 C   0  0  0  0  0  0  0  0  0  0  0  0
    1.5000   10.3923    0.0000 C   0  0  0  0  0  0  0  0  0  0  0  0
    3.0000    7.7942    0.0000 C   0  0  0  0  0  0  0  0  0  0  0  0
    3.7500    6.4952    0.0000 C   0  0  0  0  0  0  0  0  0  0  0  0
    3.0000    5.1962    0.0000 O   0  0  0  0  0  0  0  0  0  0  0  0
    1.5000    5.1962    0.0000 C   0  0  0  0  0  0  0  0  0  0  0  0
    3.7500    3.8971    0.0000 N   0  0  0  0  0  0  0  0  0  0  0  0
  1  2  1  0
  2  3  1  0
  3  4  2  0
  4  5  1  0
  5  6  1  0
  6  7  1  0
  7  8  1  0
  8  9  1  0
  9 10  1  0
 10 11  1  0
 10 12  2  0
 10 13  2  0
  9 14  1  0
 14 15  1  0
  5 16  2  0
 16 17  1  0
 17 18  2  0
 18 19  1  0
 19 20  1  0
 20 21  2  0
 21 22  1  0
 22 23  2  0
 23 24  1  0
 23 25  1  0
 25 26  1  0
 26 27  1  0
 27 28  2  0
 28 29  1  0
 29 30  2  0
 30 31  1  0
 31 32  1  0
 32 33  1  0
 33 34  1  0
 34 35  1  0
 35 36  1  0
 35 37  2  0
 35 38  2  0
 34 39  1  0
 39 40  1  0
 30 41  1  0
 41 42  2  0
 42 43  1  0
 43 44  1  0
 25 45  2  0
 18  3  1  0
 45 20  1  0
 15  6  1  0
 42 27  1  0
 40 31  1  0
M  END
>  <Compound_ID>  (75) 
CHEMBL3902089

>  <Molecule Name>  (75) 
nan

>  <Molecular Weight>  (75) 
681.24

>  <AlogP>  (75) 
2.80

>  <Smiles>  (75) 
COc1cc(N2CCN(S(C)(=O)=O)CC2)ccc1Nc1ncc(Cl)c(Nc2ccc(N3CCN(S(C)(=O)=O)CC3)cc2OC)n1

>  <Standard Type>  (75) 
IC50

>  <Standard Relation>  (75) 
'='

>  <Standard Units>  (75) 
nM

>  <Standard Value>  (75) 
64.0

>  <Assay ChEMBL ID>  (75) 
CHEMBL3887133

>  <Assay Description>  (75) 
Homogeneous Time-resolved fluorescence (HTRF) Assay: In order to measure the inhibitory activity against ALK, a Grainer 96-well round type bottom plate was added with the compounds (2 μl) prepared in Examples 1 to 89, and mixed with ALK enzyme (1 ul) and a peptide substrate (2 μl) with biotin attached thereto for 15 minutes and cultured thereafter. Here, ATP solution (5 μl) was added thereto and kinase reaction was performed at room temperature for 30 minutes. XL 665 (5 μl), to which Streptavidin dissolved in ethylenediaminetetraacetic acid solution was attached, anti-phosphotyrosine antibody (5 μl), to which europium (Eu3+) was attached, were added to a reaction solution to stop the reaction, cultured for 1 hour, and analyzed using Homogeneous Time-resolved fluorescence (HTRF, Cisbio). The result was read by a Wallac Envision 2103 device at the wavelength range of 615/665 nm.

>  <BAO Format ID>  (75) 
BAO_0000357

>  <BAO Label>  (75) 
single protein format

>  <Assay Organism>  (75) 
None

>  <Target ChEMBL ID>  (75) 
CHEMBL4247

>  <Target Name>  (75) 
ALK tyrosine kinase receptor

>  <Target Organism>  (75) 
Homo sapiens

>  <Target Type>  (75) 
SINGLE PROTEIN

>  <Document ChEMBL ID>  (75) 
CHEMBL3886178

>  <Source Description>  (75) 
BindingDB Database

>  <Document Journal>  (75) 
nan

>  <Document Year>  (75) 
2015.0

>  <Active>  (75) 
1.0

>  <bits>  (75) 
<rdkit.DataStructs.cDataStructs.ExplicitBitVect object at 0x000002422F1E10E0>

>  <Group>  (75) 
G2

$$$$

     RDKit          2D

 31 35  0  0  0  0  0  0  0  0999 V2000
   -4.6634   -2.0210    0.0000 C   0  0  0  0  0  0  0  0  0  0  0  0
   -5.7781   -3.0247    0.0000 C   0  0  0  0  0  0  0  0  0  0  0  0
   -7.2453   -2.7128    0.0000 N   0  0  0  0  0  0  0  0  0  0  0  0
   -7.9953   -4.0119    0.0000 N   0  0  0  0  0  0  0  0  0  0  0  0
   -6.9917   -5.1266    0.0000 S   0  0  0  0  0  0  0  0  0  0  0  0
   -5.6213   -4.5165    0.0000 C   0  0  0  0  0  0  0  0  0  0  0  0
   -4.3223   -5.2665    0.0000 C   0  0  0  0  0  0  0  0  0  0  0  0
   -4.1655   -6.7583    0.0000 N   0  0  0  0  0  0  0  0  0  0  0  0
   -2.6983   -7.0701    0.0000 N   0  0  0  0  0  0  0  0  0  0  0  0
   -1.9483   -5.7711    0.0000 C   0  0  0  0  0  0  0  0  0  0  0  0
   -0.4565   -5.6143    0.0000 O   0  0  0  0  0  0  0  0  0  0  0  0
   -2.9520   -4.6564    0.0000 C   0  0  0  0  0  0  0  0  0  0  0  0
   -2.6401   -3.1891    0.0000 C   0  0  0  0  0  0  0  0  0  0  0  0
   -1.2135   -2.7256    0.0000 C   0  0  0  0  0  0  0  0  0  0  0  0
   -0.0000   -3.6073    0.0000 C   0  0  0  0  0  0  0  0  0  0  0  0
    1.2135   -2.7256    0.0000 N   0  0  0  0  0  0  0  0  0  0  0  0
    2.6401   -3.1891    0.0000 C   0  0  0  0  0  0  0  0  0  0  0  0
    0.7500   -1.2990    0.0000 C   0  0  0  0  0  0  0  0  0  0  0  0
    1.5000    0.0000    0.0000 C   0  0  0  0  0  0  0  0  0  0  0  0
    0.7500    1.2990    0.0000 C   0  0  0  0  0  0  0  0  0  0  0  0
   -0.7500    1.2990    0.0000 C   0  0  0  0  0  0  0  0  0  0  0  0
   -1.5000    0.0000    0.0000 C   0  0  0  0  0  0  0  0  0  0  0  0
   -3.0000    0.0000    0.0000 O   0  0  0  0  0  0  0  0  0  0  0  0
   -3.7500    1.2990    0.0000 C   0  0  0  0  0  0  0  0  0  0  0  0
   -5.2500    1.2990    0.0000 C   0  0  0  0  0  0  0  0  0  0  0  0
   -6.0000    2.5981    0.0000 C   0  0  0  0  0  0  0  0  0  0  0  0
   -7.5000    2.5981    0.0000 C   0  0  0  0  0  0  0  0  0  0  0  0
   -8.2500    1.2990    0.0000 C   0  0  0  0  0  0  0  0  0  0  0  0
   -7.5000    0.0000    0.0000 N   0  0  0  0  0  0  0  0  0  0  0  0
   -6.0000    0.0000    0.0000 C   0  0  0  0  0  0  0  0  0  0  0  0
   -0.7500   -1.2990    0.0000 C   0  0  0  0  0  0  0  0  0  0  0  0
  1  2  1  0
  2  3  1  0
  3  4  2  0
  4  5  1  0
  5  6  1  0
  6  7  1  0
  7  8  2  0
  8  9  1  0
  9 10  1  0
 10 11  2  0
 10 12  1  0
 12 13  2  0
 13 14  1  0
 14 15  2  0
 15 16  1  0
 16 17  1  0
 16 18  1  0
 18 19  2  0
 19 20  1  0
 20 21  2  0
 21 22  1  0
 22 23  1  0
 23 24  1  0
 24 25  1  0
 25 26  2  0
 26 27  1  0
 27 28  2  0
 28 29  1  0
 29 30  2  0
 22 31  2  0
  6  2  2  0
 12  7  1  0
 31 14  1  0
 31 18  1  0
 30 25  1  0
M  END
>  <Compound_ID>  (76) 
CHEMBL1922963

>  <Molecule Name>  (76) 
nan

>  <Molecular Weight>  (76) 
430.49

>  <AlogP>  (76) 
3.23

>  <Smiles>  (76) 
Cc1nnsc1C1=NNC(=O)/C1=C\c1cn(C)c2cccc(OCc3cccnc3)c12

>  <Standard Type>  (76) 
IC50

>  <Standard Relation>  (76) 
'='

>  <Standard Units>  (76) 
nM

>  <Standard Value>  (76) 
34.0

>  <Assay ChEMBL ID>  (76) 
CHEMBL1925015

>  <Assay Description>  (76) 
Inhibition of ALK

>  <BAO Format ID>  (76) 
BAO_0000357

>  <BAO Label>  (76) 
single protein format

>  <Assay Organism>  (76) 
None

>  <Target ChEMBL ID>  (76) 
CHEMBL4247

>  <Target Name>  (76) 
ALK tyrosine kinase receptor

>  <Target Organism>  (76) 
Homo sapiens

>  <Target Type>  (76) 
SINGLE PROTEIN

>  <Document ChEMBL ID>  (76) 
CHEMBL1921676

>  <Source Description>  (76) 
Scientific Literature

>  <Document Journal>  (76) 
Bioorg Med Chem Lett

>  <Document Year>  (76) 
2011.0

>  <Active>  (76) 
1.0

>  <bits>  (76) 
<rdkit.DataStructs.cDataStructs.ExplicitBitVect object at 0x000002422F1E0CF0>

>  <Group>  (76) 
G2

$$$$

     RDKit          2D

 36 41  0  0  0  0  0  0  0  0999 V2000
   -8.2219   -7.2679    0.0000 C   0  0  0  0  0  0  0  0  0  0  0  0
   -6.8516   -6.6578    0.0000 C   0  0  0  0  0  0  0  0  0  0  0  0
   -6.6948   -5.1660    0.0000 C   0  0  0  0  0  0  0  0  0  0  0  0
   -5.6381   -7.5395    0.0000 O   0  0  0  0  0  0  0  0  0  0  0  0
   -4.2677   -6.9294    0.0000 C   0  0  0  0  0  0  0  0  0  0  0  0
   -4.1110   -5.4376    0.0000 C   0  0  0  0  0  0  0  0  0  0  0  0
   -2.7406   -4.8275    0.0000 C   0  0  0  0  0  0  0  0  0  0  0  0
   -1.5271   -5.7092    0.0000 C   0  0  0  0  0  0  0  0  0  0  0  0
   -1.6839   -7.2010    0.0000 C   0  0  0  0  0  0  0  0  0  0  0  0
   -3.0542   -7.8111    0.0000 C   0  0  0  0  0  0  0  0  0  0  0  0
   -3.2110   -9.3029    0.0000 O   0  0  0  0  0  0  0  0  0  0  0  0
   -1.9975  -10.1845    0.0000 C   0  0  0  0  0  0  0  0  0  0  0  0
   -0.5709   -9.7210    0.0000 C   0  0  0  0  0  0  0  0  0  0  0  0
    0.3108  -10.9345    0.0000 C   0  0  0  0  0  0  0  0  0  0  0  0
   -0.5709  -12.1481    0.0000 N   0  0  0  0  0  0  0  0  0  0  0  0
   -0.1074  -13.5746    0.0000 C   0  0  0  0  0  0  0  0  0  0  0  0
   -0.7884  -14.9112    0.0000 C   0  0  0  0  0  0  0  0  0  0  0  0
    0.5481  -15.5921    0.0000 C   0  0  0  0  0  0  0  0  0  0  0  0
    1.2291  -14.2556    0.0000 C   0  0  0  0  0  0  0  0  0  0  0  0
   -1.9975  -11.6845    0.0000 C   0  0  0  0  0  0  0  0  0  0  0  0
   -0.1568   -5.0991    0.0000 C   0  0  0  0  0  0  0  0  0  0  0  0
    1.3396   -4.9944    0.0000 C   0  0  0  0  0  0  0  0  0  0  0  0
    0.2061   -6.5545    0.0000 C   0  0  0  0  0  0  0  0  0  0  0  0
   -0.0000   -3.6073    0.0000 C   0  0  0  0  0  0  0  0  0  0  0  0
    1.2135   -2.7256    0.0000 N   0  0  0  0  0  0  0  0  0  0  0  0
    0.7500   -1.2990    0.0000 C   0  0  0  0  0  0  0  0  0  0  0  0
    1.5000    0.0000    0.0000 C   0  0  0  0  0  0  0  0  0  0  0  0
    0.7500    1.2990    0.0000 C   0  0  0  0  0  0  0  0  0  0  0  0
    1.5000    2.5981    0.0000 C   0  0  0  0  0  0  0  0  0  0  0  0
    2.2500    3.8971    0.0000 N   0  0  0  0  0  0  0  0  0  0  0  0
   -0.7500    1.2990    0.0000 C   0  0  0  0  0  0  0  0  0  0  0  0
   -1.5000    0.0000    0.0000 C   0  0  0  0  0  0  0  0  0  0  0  0
   -0.7500   -1.2990    0.0000 C   0  0  0  0  0  0  0  0  0  0  0  0
   -1.2135   -2.7256    0.0000 C   0  0  0  0  0  0  0  0  0  0  0  0
   -2.5838   -3.3357    0.0000 C   0  0  0  0  0  0  0  0  0  0  0  0
   -3.7974   -2.4540    0.0000 O   0  0  0  0  0  0  0  0  0  0  0  0
  1  2  1  0
  2  3  1  0
  2  4  1  0
  4  5  1  0
  5  6  2  0
  6  7  1  0
  7  8  2  0
  8  9  1  0
  9 10  2  0
 10 11  1  0
 12 11  1  6
 12 13  1  0
 13 14  1  0
 14 15  1  0
 15 16  1  0
 16 17  1  0
 17 18  1  0
 18 19  1  0
 15 20  1  0
  8 21  1  0
 21 22  1  0
 21 23  1  0
 21 24  1  0
 24 25  1  0
 25 26  1  0
 26 27  2  0
 27 28  1  0
 28 29  1  0
 29 30  3  0
 28 31  2  0
 31 32  1  0
 32 33  2  0
 33 34  1  0
 34 35  1  0
 35 36  2  0
 10  5  1  0
 20 12  1  0
 34 24  2  0
 35  7  1  0
 19 16  1  0
 33 26  1  0
M  END
>  <Compound_ID>  (77) 
CHEMBL4106737

>  <Molecule Name>  (77) 
nan

>  <Molecular Weight>  (77) 
483.61

>  <AlogP>  (77) 
5.70

>  <Smiles>  (77) 
CC(C)Oc1cc2c(cc1O[C@@H]1CCN(C3CCC3)C1)C(C)(C)c1[nH]c3cc(C#N)ccc3c1C2=O

>  <Standard Type>  (77) 
IC50

>  <Standard Relation>  (77) 
'='

>  <Standard Units>  (77) 
nM

>  <Standard Value>  (77) 
1.6

>  <Assay ChEMBL ID>  (77) 
CHEMBL3887074

>  <Assay Description>  (77) 
Inhibition Assay: ALK-inhibiting activity was measured by following an activity of inhibiting phosphorylation by biotinylated peptide (EGPWLEEEEEAYGWMDF). For the detection of phosphorylation of the biotinylated peptide, time-resolved fluorescence measurement was performed using an anti-phosphorylated tyrosine antibody labeled with europium cryptate and streptavidin conjugated to XL665, i.e., an allophycocyanin derivative.

>  <BAO Format ID>  (77) 
BAO_0000357

>  <BAO Label>  (77) 
single protein format

>  <Assay Organism>  (77) 
Homo sapiens

>  <Target ChEMBL ID>  (77) 
CHEMBL4247

>  <Target Name>  (77) 
ALK tyrosine kinase receptor

>  <Target Organism>  (77) 
Homo sapiens

>  <Target Type>  (77) 
SINGLE PROTEIN

>  <Document ChEMBL ID>  (77) 
CHEMBL3886150

>  <Source Description>  (77) 
BindingDB Database

>  <Document Journal>  (77) 
nan

>  <Document Year>  (77) 
2015.0

>  <Active>  (77) 
1.0

>  <bits>  (77) 
<rdkit.DataStructs.cDataStructs.ExplicitBitVect object at 0x000002422F1E0200>

>  <Group>  (77) 
G2

$$$$

     RDKit          2D

 42 46  0  0  0  0  0  0  0  0999 V2000
    3.7500   -1.2990    0.0000 C   0  0  0  0  0  0  0  0  0  0  0  0
    3.0000    0.0000    0.0000 O   0  0  0  0  0  0  0  0  0  0  0  0
    1.5000    0.0000    0.0000 C   0  0  0  0  0  0  0  0  0  0  0  0
    0.7500   -1.2990    0.0000 C   0  0  0  0  0  0  0  0  0  0  0  0
   -0.7500   -1.2990    0.0000 C   0  0  0  0  0  0  0  0  0  0  0  0
   -1.5000   -2.5981    0.0000 N   0  0  0  0  0  0  0  0  0  0  0  0
   -3.0000   -2.5981    0.0000 C   0  0  0  0  0  0  0  0  0  0  0  0
   -3.7500   -3.8971    0.0000 C   0  0  0  0  0  0  0  0  0  0  0  0
   -3.0000   -5.1962    0.0000 N   0  0  0  0  0  0  0  0  0  0  0  0
   -3.7500   -6.4952    0.0000 C   0  0  0  0  0  0  0  0  0  0  0  0
   -5.2500   -6.4952    0.0000 C   0  0  0  0  0  0  0  0  0  0  0  0
   -3.0000   -7.7942    0.0000 O   0  0  0  0  0  0  0  0  0  0  0  0
   -1.5000   -5.1962    0.0000 C   0  0  0  0  0  0  0  0  0  0  0  0
   -0.7500   -3.8971    0.0000 C   0  0  0  0  0  0  0  0  0  0  0  0
   -1.5000    0.0000    0.0000 C   0  0  0  0  0  0  0  0  0  0  0  0
   -0.7500    1.2990    0.0000 C   0  0  0  0  0  0  0  0  0  0  0  0
    0.7500    1.2990    0.0000 C   0  0  0  0  0  0  0  0  0  0  0  0
    1.5000    2.5981    0.0000 N   0  0  0  0  0  0  0  0  0  0  0  0
    3.0000    2.5981    0.0000 C   0  0  0  0  0  0  0  0  0  0  0  0
    3.7500    1.2990    0.0000 N   0  0  0  0  0  0  0  0  0  0  0  0
    5.2500    1.2990    0.0000 C   0  0  0  0  0  0  0  0  0  0  0  0
    6.0000    2.5981    0.0000 C   0  0  0  0  0  0  0  0  0  0  0  0
    7.5000    2.5981    0.0000 Cl  0  0  0  0  0  0  0  0  0  0  0  0
    5.2500    3.8971    0.0000 C   0  0  0  0  0  0  0  0  0  0  0  0
    6.0000    5.1962    0.0000 N   0  0  0  0  0  0  0  0  0  0  0  0
    5.2500    6.4952    0.0000 C   0  0  0  0  0  0  0  0  0  0  0  0
    6.0000    7.7942    0.0000 C   0  0  0  0  0  0  0  0  0  0  0  0
    5.2500    9.0933    0.0000 C   0  0  0  0  0  0  0  0  0  0  0  0
    3.7500    9.0933    0.0000 C   0  0  0  0  0  0  0  0  0  0  0  0
    3.0000   10.3923    0.0000 N   0  0  0  0  0  0  0  0  0  0  0  0
    3.7500   11.6913    0.0000 C   0  0  0  0  0  0  0  0  0  0  0  0
    3.0000   12.9904    0.0000 C   0  0  0  0  0  0  0  0  0  0  0  0
    1.5000   12.9904    0.0000 N   0  0  0  0  0  0  0  0  0  0  0  0
    0.7500   11.6913    0.0000 C   0  0  0  0  0  0  0  0  0  0  0  0
    1.5000   10.3923    0.0000 C   0  0  0  0  0  0  0  0  0  0  0  0
    3.0000    7.7942    0.0000 C   0  0  0  0  0  0  0  0  0  0  0  0
    3.7500    6.4952    0.0000 C   0  0  0  0  0  0  0  0  0  0  0  0
    3.0000    5.1962    0.0000 O   0  0  0  0  0  0  0  0  0  0  0  0
    1.5000    5.1962    0.0000 C   0  0  0  0  0  0  0  0  0  0  0  0
    0.7500    3.8971    0.0000 F   0  0  0  0  0  0  0  0  0  0  0  0
    0.7500    6.4952    0.0000 F   0  0  0  0  0  0  0  0  0  0  0  0
    3.7500    3.8971    0.0000 N   0  0  0  0  0  0  0  0  0  0  0  0
  1  2  1  0
  2  3  1  0
  3  4  2  0
  4  5  1  0
  5  6  1  0
  6  7  1  0
  7  8  1  0
  8  9  1  0
  9 10  1  0
 10 11  1  0
 10 12  2  0
  9 13  1  0
 13 14  1  0
  5 15  2  0
 15 16  1  0
 16 17  2  0
 17 18  1  0
 18 19  1  0
 19 20  2  0
 20 21  1  0
 21 22  2  0
 22 23  1  0
 22 24  1  0
 24 25  1  0
 25 26  1  0
 26 27  2  0
 27 28  1  0
 28 29  2  0
 29 30  1  0
 30 31  1  0
 31 32  1  0
 32 33  1  0
 33 34  1  0
 34 35  1  0
 29 36  1  0
 36 37  2  0
 37 38  1  0
 38 39  1  0
 39 40  1  0
 39 41  1  0
 24 42  2  0
 17  3  1  0
 42 19  1  0
 14  6  1  0
 37 26  1  0
 35 30  1  0
M  END
>  <Compound_ID>  (78) 
CHEMBL3972028

>  <Molecule Name>  (78) 
nan

>  <Molecular Weight>  (78) 
603.07

>  <AlogP>  (78) 
4.31

>  <Smiles>  (78) 
COc1cc(N2CCN(C(C)=O)CC2)ccc1Nc1ncc(Cl)c(Nc2ccc(N3CCNCC3)cc2OC(F)F)n1

>  <Standard Type>  (78) 
IC50

>  <Standard Relation>  (78) 
'='

>  <Standard Units>  (78) 
nM

>  <Standard Value>  (78) 
5.0

>  <Assay ChEMBL ID>  (78) 
CHEMBL3887132

>  <Assay Description>  (78) 
Homogeneous Time-resolved fluorescence (HTRF) Assay: In order to measure the inhibitory activity against ALK, a Grainer 96-well round type bottom plate was added with the compounds (2 μl) prepared in Examples 1 to 89, and mixed with ALK enzyme (1 ul) and a peptide substrate (2 μl) with biotin attached thereto for 15 minutes and cultured thereafter. Here, ATP solution (5 μl) was added thereto and kinase reaction was performed at room temperature for 30 minutes. XL 665 (5 μl), to which Streptavidin dissolved in ethylenediaminetetraacetic acid solution was attached, anti-phosphotyrosine antibody (5 μl), to which europium (Eu3+) was attached, were added to a reaction solution to stop the reaction, cultured for 1 hour, and analyzed using Homogeneous Time-resolved fluorescence (HTRF, Cisbio). The result was read by a Wallac Envision 2103 device at the wavelength range of 615/665 nm.

>  <BAO Format ID>  (78) 
BAO_0000357

>  <BAO Label>  (78) 
single protein format

>  <Assay Organism>  (78) 
Homo sapiens

>  <Target ChEMBL ID>  (78) 
CHEMBL4247

>  <Target Name>  (78) 
ALK tyrosine kinase receptor

>  <Target Organism>  (78) 
Homo sapiens

>  <Target Type>  (78) 
SINGLE PROTEIN

>  <Document ChEMBL ID>  (78) 
CHEMBL3886178

>  <Source Description>  (78) 
BindingDB Database

>  <Document Journal>  (78) 
nan

>  <Document Year>  (78) 
2015.0

>  <Active>  (78) 
1.0

>  <bits>  (78) 
<rdkit.DataStructs.cDataStructs.ExplicitBitVect object at 0x000002422F1E3F40>

>  <Group>  (78) 
G2

$$$$

     RDKit          2D

 41 46  0  0  0  0  0  0  0  0999 V2000
   -3.1240   -4.8037    0.0000 C   0  0  0  0  0  0  0  0  0  0  0  0
   -4.4231   -4.0537    0.0000 C   0  0  0  0  0  0  0  0  0  0  0  0
   -5.7221   -4.8037    0.0000 C   0  0  0  0  0  0  0  0  0  0  0  0
   -7.0211   -4.0537    0.0000 C   0  0  0  0  0  0  0  0  0  0  0  0
   -8.3202   -4.8037    0.0000 N   0  0  0  0  0  0  0  0  0  0  0  0
   -9.6192   -4.0537    0.0000 C   0  0  0  0  0  0  0  0  0  0  0  0
   -9.6192   -2.5537    0.0000 C   0  0  0  0  0  0  0  0  0  0  0  0
  -10.9182   -1.8037    0.0000 C   0  0  0  0  0  0  0  0  0  0  0  0
  -12.2173   -2.5537    0.0000 N   0  0  0  0  0  0  0  0  0  0  0  0
  -13.5163   -1.8037    0.0000 C   0  0  0  0  0  0  0  0  0  0  0  0
  -12.2173   -4.0537    0.0000 C   0  0  0  0  0  0  0  0  0  0  0  0
  -10.9182   -4.8037    0.0000 C   0  0  0  0  0  0  0  0  0  0  0  0
   -7.0211   -2.5537    0.0000 C   0  0  0  0  0  0  0  0  0  0  0  0
   -5.7221   -1.8037    0.0000 C   0  0  0  0  0  0  0  0  0  0  0  0
   -4.4231   -2.5537    0.0000 C   0  0  0  0  0  0  0  0  0  0  0  0
   -3.1240   -1.8037    0.0000 C   0  0  0  0  0  0  0  0  0  0  0  0
   -1.7537   -2.4138    0.0000 C   0  0  0  0  0  0  0  0  0  0  0  0
   -0.7500   -1.2990    0.0000 C   0  0  0  0  0  0  0  0  0  0  0  0
    0.7500   -1.2990    0.0000 C   0  0  0  0  0  0  0  0  0  0  0  0
    1.5000   -2.5981    0.0000 N   0  0  0  0  0  0  0  0  0  0  0  0
    0.7500   -3.8971    0.0000 C   0  0  0  0  0  0  0  0  0  0  0  0
    1.5000   -5.1962    0.0000 C   0  0  0  0  0  0  0  0  0  0  0  0
    3.0000   -5.1962    0.0000 C   0  0  0  0  0  0  0  0  0  0  0  0
    3.7500   -3.8971    0.0000 C   0  0  0  0  0  0  0  0  0  0  0  0
    5.2500   -3.8971    0.0000 C   0  0  0  0  0  0  0  0  0  0  0  0
    6.0000   -2.5981    0.0000 O   0  0  0  0  0  0  0  0  0  0  0  0
    6.0000   -5.1962    0.0000 N   0  0  0  0  0  0  0  0  0  0  0  0
    7.5000   -5.1962    0.0000 C   0  0  0  0  0  0  0  0  0  0  0  0
    8.2500   -6.4952    0.0000 C   0  0  0  0  0  0  0  0  0  0  0  0
    7.5000   -7.7942    0.0000 C   0  0  0  0  0  0  0  0  0  0  0  0
    8.2500   -9.0933    0.0000 C   0  0  0  0  0  0  0  0  0  0  0  0
    9.7500   -9.0933    0.0000 C   0  0  0  0  0  0  0  0  0  0  0  0
   10.5000  -10.3923    0.0000 Cl  0  0  0  0  0  0  0  0  0  0  0  0
   10.5000   -7.7942    0.0000 C   0  0  0  0  0  0  0  0  0  0  0  0
    9.7500   -6.4952    0.0000 C   0  0  0  0  0  0  0  0  0  0  0  0
    3.0000   -2.5981    0.0000 C   0  0  0  0  0  0  0  0  0  0  0  0
    1.5000    0.0000    0.0000 N   0  0  0  0  0  0  0  0  0  0  0  0
    0.7500    1.2990    0.0000 C   0  0  0  0  0  0  0  0  0  0  0  0
   -0.7500    1.2990    0.0000 N   0  0  0  0  0  0  0  0  0  0  0  0
   -1.5000    0.0000    0.0000 C   0  0  0  0  0  0  0  0  0  0  0  0
   -2.9672   -0.3119    0.0000 N   0  0  0  0  0  0  0  0  0  0  0  0
  1  2  1  0
  2  3  2  0
  3  4  1  0
  4  5  1  0
  5  6  1  0
  6  7  1  0
  7  8  1  0
  8  9  1  0
  9 10  1  0
  9 11  1  0
 11 12  1  0
  4 13  2  0
 13 14  1  0
 14 15  2  0
 15 16  1  0
 16 17  2  0
 17 18  1  0
 18 19  2  0
 19 20  1  0
 20 21  1  0
 21 22  1  0
 22 23  1  0
 23 24  1  0
 24 25  1  1
 25 26  2  0
 25 27  1  0
 27 28  1  0
 28 29  1  0
 29 30  2  0
 30 31  1  0
 31 32  2  0
 32 33  1  0
 32 34  1  0
 34 35  2  0
 24 36  1  0
 19 37  1  0
 37 38  2  0
 38 39  1  0
 39 40  2  0
 40 41  1  0
 15  2  1  0
 41 16  1  0
 12  6  1  0
 40 18  1  0
 36 20  1  0
 35 29  1  0
M  END
>  <Compound_ID>  (79) 
CHEMBL4466561

>  <Molecule Name>  (79) 
nan

>  <Molecular Weight>  (79) 
572.16

>  <AlogP>  (79) 
5.63

>  <Smiles>  (79) 
Cc1cc(NC2CCN(C)CC2)ccc1-c1cc2c(N3CCC[C@H](C(=O)NCc4ccc(Cl)cc4)C3)ncnc2[nH]1

>  <Standard Type>  (79) 
IC50

>  <Standard Relation>  (79) 
'='

>  <Standard Units>  (79) 
nM

>  <Standard Value>  (79) 
0.86

>  <Assay ChEMBL ID>  (79) 
CHEMBL4378261

>  <Assay Description>  (79) 
Inhibition of ALK (unknown origin) by TR-FRET assay

>  <BAO Format ID>  (79) 
BAO_0000357

>  <BAO Label>  (79) 
single protein format

>  <Assay Organism>  (79) 
Homo sapiens

>  <Target ChEMBL ID>  (79) 
CHEMBL4247

>  <Target Name>  (79) 
ALK tyrosine kinase receptor

>  <Target Organism>  (79) 
Homo sapiens

>  <Target Type>  (79) 
SINGLE PROTEIN

>  <Document ChEMBL ID>  (79) 
CHEMBL4376817

>  <Source Description>  (79) 
Scientific Literature

>  <Document Journal>  (79) 
J Med Chem

>  <Document Year>  (79) 
2019.0

>  <Active>  (79) 
1.0

>  <bits>  (79) 
<rdkit.DataStructs.cDataStructs.ExplicitBitVect object at 0x000002422F1E3D80>

>  <Group>  (79) 
G2

$$$$

     RDKit          2D

 45 50  0  0  0  0  0  0  0  0999 V2000
   -3.1240   -4.8037    0.0000 C   0  0  0  0  0  0  0  0  0  0  0  0
   -4.4231   -4.0537    0.0000 C   0  0  0  0  0  0  0  0  0  0  0  0
   -5.7221   -4.8037    0.0000 C   0  0  0  0  0  0  0  0  0  0  0  0
   -7.0211   -4.0537    0.0000 C   0  0  0  0  0  0  0  0  0  0  0  0
   -8.3202   -4.8037    0.0000 N   0  0  0  0  0  0  0  0  0  0  0  0
   -9.6192   -4.0537    0.0000 C   0  0  0  0  0  0  0  0  0  0  0  0
   -9.6192   -2.5537    0.0000 C   0  0  0  0  0  0  0  0  0  0  0  0
  -10.9182   -1.8037    0.0000 C   0  0  0  0  0  0  0  0  0  0  0  0
  -12.2173   -2.5537    0.0000 N   0  0  0  0  0  0  0  0  0  0  0  0
  -13.5163   -1.8037    0.0000 C   0  0  0  0  0  0  0  0  0  0  0  0
  -12.2173   -4.0537    0.0000 C   0  0  0  0  0  0  0  0  0  0  0  0
  -10.9182   -4.8037    0.0000 C   0  0  0  0  0  0  0  0  0  0  0  0
   -7.0211   -2.5537    0.0000 C   0  0  0  0  0  0  0  0  0  0  0  0
   -5.7221   -1.8037    0.0000 C   0  0  0  0  0  0  0  0  0  0  0  0
   -4.4231   -2.5537    0.0000 C   0  0  0  0  0  0  0  0  0  0  0  0
   -3.1240   -1.8037    0.0000 C   0  0  0  0  0  0  0  0  0  0  0  0
   -1.7537   -2.4138    0.0000 C   0  0  0  0  0  0  0  0  0  0  0  0
   -0.7500   -1.2990    0.0000 C   0  0  0  0  0  0  0  0  0  0  0  0
    0.7500   -1.2990    0.0000 C   0  0  0  0  0  0  0  0  0  0  0  0
    1.5000   -2.5981    0.0000 N   0  0  0  0  0  0  0  0  0  0  0  0
    0.7500   -3.8971    0.0000 C   0  0  0  0  0  0  0  0  0  0  0  0
    1.5000   -5.1962    0.0000 C   0  0  0  0  0  0  0  0  0  0  0  0
    3.0000   -5.1962    0.0000 C   0  0  0  0  0  0  0  0  0  0  0  0
    3.7500   -3.8971    0.0000 C   0  0  0  0  0  0  0  0  0  0  0  0
    5.2500   -3.8971    0.0000 C   0  0  0  0  0  0  0  0  0  0  0  0
    6.0000   -2.5981    0.0000 O   0  0  0  0  0  0  0  0  0  0  0  0
    6.0000   -5.1962    0.0000 N   0  0  0  0  0  0  0  0  0  0  0  0
    7.5000   -5.1962    0.0000 C   0  0  0  0  0  0  0  0  0  0  0  0
    8.2500   -6.4952    0.0000 C   0  0  0  0  0  0  0  0  0  0  0  0
    7.5000   -7.7942    0.0000 C   0  0  0  0  0  0  0  0  0  0  0  0
    8.2500   -9.0933    0.0000 C   0  0  0  0  0  0  0  0  0  0  0  0
    9.7500   -9.0933    0.0000 C   0  0  0  0  0  0  0  0  0  0  0  0
   10.5000   -7.7942    0.0000 C   0  0  0  0  0  0  0  0  0  0  0  0
   12.0000   -7.7942    0.0000 O   0  0  0  0  0  0  0  0  0  0  0  0
   12.7500   -9.0933    0.0000 C   0  0  0  0  0  0  0  0  0  0  0  0
   13.5000  -10.3923    0.0000 F   0  0  0  0  0  0  0  0  0  0  0  0
   14.0490   -8.3433    0.0000 F   0  0  0  0  0  0  0  0  0  0  0  0
   11.4510   -9.8433    0.0000 F   0  0  0  0  0  0  0  0  0  0  0  0
    9.7500   -6.4952    0.0000 C   0  0  0  0  0  0  0  0  0  0  0  0
    3.0000   -2.5981    0.0000 C   0  0  0  0  0  0  0  0  0  0  0  0
    1.5000    0.0000    0.0000 N   0  0  0  0  0  0  0  0  0  0  0  0
    0.7500    1.2990    0.0000 C   0  0  0  0  0  0  0  0  0  0  0  0
   -0.7500    1.2990    0.0000 N   0  0  0  0  0  0  0  0  0  0  0  0
   -1.5000    0.0000    0.0000 C   0  0  0  0  0  0  0  0  0  0  0  0
   -2.9672   -0.3119    0.0000 N   0  0  0  0  0  0  0  0  0  0  0  0
  1  2  1  0
  2  3  2  0
  3  4  1  0
  4  5  1  0
  5  6  1  0
  6  7  1  0
  7  8  1  0
  8  9  1  0
  9 10  1  0
  9 11  1  0
 11 12  1  0
  4 13  2  0
 13 14  1  0
 14 15  2  0
 15 16  1  0
 16 17  2  0
 17 18  1  0
 18 19  2  0
 19 20  1  0
 20 21  1  0
 21 22  1  0
 22 23  1  0
 23 24  1  0
 24 25  1  1
 25 26  2  0
 25 27  1  0
 27 28  1  0
 28 29  1  0
 29 30  2  0
 30 31  1  0
 31 32  2  0
 32 33  1  0
 33 34  1  0
 34 35  1  0
 35 36  1  0
 35 37  1  0
 35 38  1  0
 33 39  2  0
 24 40  1  0
 19 41  1  0
 41 42  2  0
 42 43  1  0
 43 44  2  0
 44 45  1  0
 15  2  1  0
 45 16  1  0
 12  6  1  0
 44 18  1  0
 40 20  1  0
 39 29  1  0
M  END
>  <Compound_ID>  (80) 
CHEMBL4537938

>  <Molecule Name>  (80) 
nan

>  <Molecular Weight>  (80) 
621.71

>  <AlogP>  (80) 
5.87

>  <Smiles>  (80) 
Cc1cc(NC2CCN(C)CC2)ccc1-c1cc2c(N3CCC[C@H](C(=O)NCc4cccc(OC(F)(F)F)c4)C3)ncnc2[nH]1

>  <Standard Type>  (80) 
IC50

>  <Standard Relation>  (80) 
'='

>  <Standard Units>  (80) 
nM

>  <Standard Value>  (80) 
0.64

>  <Assay ChEMBL ID>  (80) 
CHEMBL4378261

>  <Assay Description>  (80) 
Inhibition of ALK (unknown origin) by TR-FRET assay

>  <BAO Format ID>  (80) 
BAO_0000357

>  <BAO Label>  (80) 
single protein format

>  <Assay Organism>  (80) 
Homo sapiens

>  <Target ChEMBL ID>  (80) 
CHEMBL4247

>  <Target Name>  (80) 
ALK tyrosine kinase receptor

>  <Target Organism>  (80) 
Homo sapiens

>  <Target Type>  (80) 
SINGLE PROTEIN

>  <Document ChEMBL ID>  (80) 
CHEMBL4376817

>  <Source Description>  (80) 
Scientific Literature

>  <Document Journal>  (80) 
J Med Chem

>  <Document Year>  (80) 
2019.0

>  <Active>  (80) 
1.0

>  <bits>  (80) 
<rdkit.DataStructs.cDataStructs.ExplicitBitVect object at 0x000002422F1E3ED0>

>  <Group>  (80) 
G2

$$$$

     RDKit          2D

 32 36  0  0  0  0  0  0  0  0999 V2000
   -6.2940    7.2357    0.0000 C   0  0  0  0  0  0  0  0  0  0  0  0
   -5.1793    6.2320    0.0000 O   0  0  0  0  0  0  0  0  0  0  0  0
   -3.7527    6.6955    0.0000 C   0  0  0  0  0  0  0  0  0  0  0  0
   -3.4408    8.1628    0.0000 C   0  0  0  0  0  0  0  0  0  0  0  0
   -2.0143    8.6263    0.0000 C   0  0  0  0  0  0  0  0  0  0  0  0
   -1.7024   10.0935    0.0000 N   0  0  0  0  0  0  0  0  0  0  0  0
   -0.2758   10.5570    0.0000 C   0  0  0  0  0  0  0  0  0  0  0  0
    0.0361   12.0242    0.0000 C   0  0  0  0  0  0  0  0  0  0  0  0
   -1.0786   13.0279    0.0000 N   0  0  0  0  0  0  0  0  0  0  0  0
   -2.5052   12.5644    0.0000 C   0  0  0  0  0  0  0  0  0  0  0  0
   -2.8171   11.0972    0.0000 C   0  0  0  0  0  0  0  0  0  0  0  0
   -0.8995    7.6226    0.0000 C   0  0  0  0  0  0  0  0  0  0  0  0
   -1.2114    6.1554    0.0000 C   0  0  0  0  0  0  0  0  0  0  0  0
   -2.6380    5.6918    0.0000 C   0  0  0  0  0  0  0  0  0  0  0  0
   -2.9499    4.2246    0.0000 N   0  0  0  0  0  0  0  0  0  0  0  0
   -1.8351    3.2209    0.0000 C   0  0  0  0  0  0  0  0  0  0  0  0
   -0.4086    3.6844    0.0000 N   0  0  0  0  0  0  0  0  0  0  0  0
    0.7062    2.6807    0.0000 C   0  0  0  0  0  0  0  0  0  0  0  0
    2.1328    3.1443    0.0000 N   0  0  0  0  0  0  0  0  0  0  0  0
    2.5963    4.5709    0.0000 C   0  0  0  0  0  0  0  0  0  0  0  0
    4.0963    4.5709    0.0000 C   0  0  0  0  0  0  0  0  0  0  0  0
    4.5598    3.1443    0.0000 C   0  0  0  0  0  0  0  0  0  0  0  0
    3.3463    2.2626    0.0000 C   0  0  0  0  0  0  0  0  0  0  0  0
    0.3943    1.2135    0.0000 N   0  0  0  0  0  0  0  0  0  0  0  0
    1.2760    0.0000    0.0000 C   0  0  0  0  0  0  0  0  0  0  0  0
    0.3943   -1.2135    0.0000 C   0  0  0  0  0  0  0  0  0  0  0  0
   -1.0323   -0.7500    0.0000 N   0  0  0  0  0  0  0  0  0  0  0  0
   -1.0323    0.7500    0.0000 C   0  0  0  0  0  0  0  0  0  0  0  0
   -2.1470    1.7537    0.0000 C   0  0  0  0  0  0  0  0  0  0  0  0
   -3.5736    1.2902    0.0000 C   0  0  0  0  0  0  0  0  0  0  0  0
   -4.6883    2.2939    0.0000 N   0  0  0  0  0  0  0  0  0  0  0  0
   -3.8855   -0.1771    0.0000 O   0  0  0  0  0  0  0  0  0  0  0  0
  1  2  1  0
  2  3  1  0
  3  4  2  0
  4  5  1  0
  5  6  1  0
  6  7  1  0
  7  8  1  0
  8  9  1  0
  9 10  1  0
 10 11  1  0
  5 12  2  0
 12 13  1  0
 13 14  2  0
 14 15  1  0
 15 16  1  0
 16 17  1  0
 17 18  2  0
 18 19  1  0
 19 20  1  0
 20 21  1  0
 21 22  1  0
 22 23  1  0
 18 24  1  0
 24 25  1  0
 25 26  2  0
 26 27  1  0
 27 28  2  0
 28 29  1  0
 29 30  1  0
 30 31  1  0
 30 32  2  0
 14  3  1  0
 29 16  2  0
 11  6  1  0
 23 19  1  0
 28 24  1  0
M  END
>  <Compound_ID>  (81) 
CHEMBL3903868

>  <Molecule Name>  (81) 
nan

>  <Molecular Weight>  (81) 
436.52

>  <AlogP>  (81) 
1.59

>  <Smiles>  (81) 
COc1cc(N2CCNCC2)ccc1Nc1nc(N2CCCC2)n2ccnc2c1C(N)=O

>  <Standard Type>  (81) 
Ki

>  <Standard Relation>  (81) 
'='

>  <Standard Units>  (81) 
nM

>  <Standard Value>  (81) 
79.0

>  <Assay ChEMBL ID>  (81) 
CHEMBL3887723

>  <Assay Description>  (81) 
Enzyme Inhibition Assay: ALK kinase assays were conducted with the indicated final concentrations unless otherwise specified. In 384 well black plates (Axygen), 8 ul of compound (2% DMSO) was incubated with 8 ul Lck-peptide substrate (0.5 uM, biotin-Ahx-GAEEEIYAAFFA-COOH) and 8 ul of a mixture of ALK (3 nM, Millipore) and ATP (50 uM) in reaction buffer (50 mM Hepes, pH 7.4; 10 mM MgCl2; 2 mM MnCl2; 0.1 mM sodium orthovanadate; 0.01% BSA and 1 mM DTT (added fresh before assay) for 1 h at room temperature. Reactions were then quenched by the addition of 30 ul quench solution (streptavidin-allophycocyanin and Europium-cryptate PT66 monoclonal antibody in 40 mM Hepes, pH 7.4; 480 mM KF; 66 mM EDTA; 0.01% Tween-20; and 0.1% BSA) at room temperature. Plates were read 1 h after quenching on an Envision Multilaber Reader and IC50 values were calculated using a sigmoidal fit of the concentration/inhibition response curves. These values were converted to apparent Ki values.

>  <BAO Format ID>  (81) 
BAO_0000357

>  <BAO Label>  (81) 
single protein format

>  <Assay Organism>  (81) 
Homo sapiens

>  <Target ChEMBL ID>  (81) 
CHEMBL4247

>  <Target Name>  (81) 
ALK tyrosine kinase receptor

>  <Target Organism>  (81) 
Homo sapiens

>  <Target Type>  (81) 
SINGLE PROTEIN

>  <Document ChEMBL ID>  (81) 
CHEMBL3886424

>  <Source Description>  (81) 
BindingDB Database

>  <Document Journal>  (81) 
nan

>  <Document Year>  (81) 
2015.0

>  <Active>  (81) 
1.0

>  <bits>  (81) 
<rdkit.DataStructs.cDataStructs.ExplicitBitVect object at 0x000002422F1E29D0>

>  <Group>  (81) 
G2

$$$$

     RDKit          2D

 35 38  0  0  0  0  0  0  0  0999 V2000
    3.9786   -1.2990    0.0000 C   0  0  0  0  0  0  0  0  0  0  0  0
    3.2286   -0.0000    0.0000 C   0  0  0  0  0  0  0  0  0  0  0  0
    1.7286    0.0000    0.0000 N   0  0  0  0  0  0  0  0  0  0  0  0
    1.0777    1.3515    0.0000 C   0  0  0  0  0  0  0  0  0  0  0  0
   -0.3846    1.6852    0.0000 C   0  0  0  0  0  0  0  0  0  0  0  0
   -1.5574    0.7500    0.0000 C   0  0  0  0  0  0  0  0  0  0  0  0
   -2.8564    1.5000    0.0000 C   0  0  0  0  0  0  0  0  0  0  0  0
   -4.1555    0.7500    0.0000 C   0  0  0  0  0  0  0  0  0  0  0  0
   -4.1555   -0.7500    0.0000 C   0  0  0  0  0  0  0  0  0  0  0  0
   -5.4545   -1.5000    0.0000 N   0  0  0  0  0  0  0  0  0  0  0  0
   -6.7535   -0.7500    0.0000 C   0  0  0  0  0  0  0  0  0  0  0  0
   -6.7535    0.7500    0.0000 N   0  0  0  0  0  0  0  0  0  0  0  0
   -8.0526    1.5000    0.0000 C   0  0  0  0  0  0  0  0  0  0  0  0
   -9.3516    0.7500    0.0000 C   0  0  0  0  0  0  0  0  0  0  0  0
  -10.6507    1.5000    0.0000 Cl  0  0  0  0  0  0  0  0  0  0  0  0
   -9.3516   -0.7500    0.0000 C   0  0  0  0  0  0  0  0  0  0  0  0
  -10.6507   -1.5000    0.0000 N   0  0  0  0  0  0  0  0  0  0  0  0
  -10.6507   -3.0000    0.0000 C   0  0  0  0  0  0  0  0  0  0  0  0
  -11.9497   -3.7500    0.0000 C   0  0  0  0  0  0  0  0  0  0  0  0
  -11.9497   -5.2500    0.0000 C   0  0  0  0  0  0  0  0  0  0  0  0
  -10.6507   -6.0000    0.0000 C   0  0  0  0  0  0  0  0  0  0  0  0
   -9.3516   -5.2500    0.0000 C   0  0  0  0  0  0  0  0  0  0  0  0
   -9.3516   -3.7500    0.0000 C   0  0  0  0  0  0  0  0  0  0  0  0
   -8.0526   -3.0000    0.0000 N   0  0  0  0  0  0  0  0  0  0  0  0
   -6.7535   -3.7500    0.0000 C   0  0  0  0  0  0  0  0  0  0  0  0
   -5.4545   -3.0000    0.0000 O   0  0  0  0  0  0  0  0  0  0  0  0
   -6.7535   -5.2500    0.0000 C   0  0  0  0  0  0  0  0  0  0  0  0
   -6.7535   -6.7500    0.0000 F   0  0  0  0  0  0  0  0  0  0  0  0
   -5.2535   -5.2500    0.0000 F   0  0  0  0  0  0  0  0  0  0  0  0
   -8.2535   -5.2500    0.0000 F   0  0  0  0  0  0  0  0  0  0  0  0
   -8.0526   -1.5000    0.0000 N   0  0  0  0  0  0  0  0  0  0  0  0
   -2.8564   -1.5000    0.0000 C   0  0  0  0  0  0  0  0  0  0  0  0
   -1.5574   -0.7500    0.0000 C   0  0  0  0  0  0  0  0  0  0  0  0
   -0.3846   -1.6852    0.0000 C   0  0  0  0  0  0  0  0  0  0  0  0
    1.0777   -1.3515    0.0000 C   0  0  0  0  0  0  0  0  0  0  0  0
  1  2  1  0
  2  3  1  0
  3  4  1  0
  4  5  1  0
  5  6  1  0
  6  7  2  0
  7  8  1  0
  8  9  2  0
  9 10  1  0
 10 11  1  0
 11 12  2  0
 12 13  1  0
 13 14  2  0
 14 15  1  0
 14 16  1  0
 16 17  1  0
 18 17  1  1
 18 19  1  0
 19 20  1  0
 20 21  1  0
 21 22  1  0
 22 23  1  0
 23 24  1  6
 24 25  1  0
 25 26  2  0
 25 27  1  0
 27 28  1  0
 27 29  1  0
 27 30  1  0
 16 31  2  0
  9 32  1  0
 32 33  2  0
 33 34  1  0
 34 35  1  0
 35  3  1  0
 33  6  1  0
 31 11  1  0
 23 18  1  0
M  END
>  <Compound_ID>  (82) 
CHEMBL1796246

>  <Molecule Name>  (82) 
nan

>  <Molecular Weight>  (82) 
510.99

>  <AlogP>  (82) 
4.70

>  <Smiles>  (82) 
CCN1CCc2ccc(Nc3ncc(Cl)c(N[C@@H]4CCCC[C@H]4NC(=O)C(F)(F)F)n3)cc2CC1

>  <Standard Type>  (82) 
IC50

>  <Standard Relation>  (82) 
'='

>  <Standard Units>  (82) 
nM

>  <Standard Value>  (82) 
26.0

>  <Assay ChEMBL ID>  (82) 
CHEMBL1798383

>  <Assay Description>  (82) 
Inhibition of ALK

>  <BAO Format ID>  (82) 
BAO_0000357

>  <BAO Label>  (82) 
single protein format

>  <Assay Organism>  (82) 
None

>  <Target ChEMBL ID>  (82) 
CHEMBL4247

>  <Target Name>  (82) 
ALK tyrosine kinase receptor

>  <Target Organism>  (82) 
Homo sapiens

>  <Target Type>  (82) 
SINGLE PROTEIN

>  <Document ChEMBL ID>  (82) 
CHEMBL1795227

>  <Source Description>  (82) 
Scientific Literature

>  <Document Journal>  (82) 
Bioorg Med Chem Lett

>  <Document Year>  (82) 
2011.0

>  <Active>  (82) 
1.0

>  <bits>  (82) 
<rdkit.DataStructs.cDataStructs.ExplicitBitVect object at 0x000002422F1E0C10>

>  <Group>  (82) 
G2

$$$$

     RDKit          2D

 37 40  0  0  0  0  0  0  0  0999 V2000
    6.2286   -2.5981    0.0000 C   0  0  0  0  0  0  0  0  0  0  0  0
    5.4786   -1.2990    0.0000 O   0  0  0  0  0  0  0  0  0  0  0  0
    3.9786   -1.2990    0.0000 C   0  0  0  0  0  0  0  0  0  0  0  0
    3.2286   -0.0000    0.0000 C   0  0  0  0  0  0  0  0  0  0  0  0
    1.7286    0.0000    0.0000 N   0  0  0  0  0  0  0  0  0  0  0  0
    1.0777    1.3515    0.0000 C   0  0  0  0  0  0  0  0  0  0  0  0
   -0.3846    1.6852    0.0000 C   0  0  0  0  0  0  0  0  0  0  0  0
   -1.5574    0.7500    0.0000 C   0  0  0  0  0  0  0  0  0  0  0  0
   -2.8564    1.5000    0.0000 C   0  0  0  0  0  0  0  0  0  0  0  0
   -4.1555    0.7500    0.0000 C   0  0  0  0  0  0  0  0  0  0  0  0
   -4.1555   -0.7500    0.0000 C   0  0  0  0  0  0  0  0  0  0  0  0
   -5.4545   -1.5000    0.0000 N   0  0  0  0  0  0  0  0  0  0  0  0
   -6.7535   -0.7500    0.0000 C   0  0  0  0  0  0  0  0  0  0  0  0
   -6.7535    0.7500    0.0000 N   0  0  0  0  0  0  0  0  0  0  0  0
   -8.0526    1.5000    0.0000 C   0  0  0  0  0  0  0  0  0  0  0  0
   -9.3516    0.7500    0.0000 C   0  0  0  0  0  0  0  0  0  0  0  0
  -10.6507    1.5000    0.0000 Cl  0  0  0  0  0  0  0  0  0  0  0  0
   -9.3516   -0.7500    0.0000 C   0  0  0  0  0  0  0  0  0  0  0  0
  -10.6507   -1.5000    0.0000 N   0  0  0  0  0  0  0  0  0  0  0  0
  -10.6507   -3.0000    0.0000 C   0  0  0  0  0  0  0  0  0  0  0  0
  -11.9497   -3.7500    0.0000 C   0  0  0  0  0  0  0  0  0  0  0  0
  -11.9497   -5.2500    0.0000 C   0  0  0  0  0  0  0  0  0  0  0  0
  -10.6507   -6.0000    0.0000 C   0  0  0  0  0  0  0  0  0  0  0  0
   -9.3516   -5.2500    0.0000 C   0  0  0  0  0  0  0  0  0  0  0  0
   -9.3516   -3.7500    0.0000 C   0  0  0  0  0  0  0  0  0  0  0  0
   -8.0526   -3.0000    0.0000 N   0  0  0  0  0  0  0  0  0  0  0  0
   -6.7535   -3.7500    0.0000 C   0  0  0  0  0  0  0  0  0  0  0  0
   -5.4545   -3.0000    0.0000 O   0  0  0  0  0  0  0  0  0  0  0  0
   -6.7535   -5.2500    0.0000 C   0  0  0  0  0  0  0  0  0  0  0  0
   -6.7535   -6.7500    0.0000 F   0  0  0  0  0  0  0  0  0  0  0  0
   -5.2535   -5.2500    0.0000 F   0  0  0  0  0  0  0  0  0  0  0  0
   -8.2535   -5.2500    0.0000 F   0  0  0  0  0  0  0  0  0  0  0  0
   -8.0526   -1.5000    0.0000 N   0  0  0  0  0  0  0  0  0  0  0  0
   -2.8564   -1.5000    0.0000 C   0  0  0  0  0  0  0  0  0  0  0  0
   -1.5574   -0.7500    0.0000 C   0  0  0  0  0  0  0  0  0  0  0  0
   -0.3846   -1.6852    0.0000 C   0  0  0  0  0  0  0  0  0  0  0  0
    1.0777   -1.3515    0.0000 C   0  0  0  0  0  0  0  0  0  0  0  0
  1  2  1  0
  2  3  1  0
  3  4  1  0
  4  5  1  0
  5  6  1  0
  6  7  1  0
  7  8  1  0
  8  9  2  0
  9 10  1  0
 10 11  2  0
 11 12  1  0
 12 13  1  0
 13 14  2  0
 14 15  1  0
 15 16  2  0
 16 17  1  0
 16 18  1  0
 18 19  1  0
 20 19  1  1
 20 21  1  0
 21 22  1  0
 22 23  1  0
 23 24  1  0
 24 25  1  0
 25 26  1  6
 26 27  1  0
 27 28  2  0
 27 29  1  0
 29 30  1  0
 29 31  1  0
 29 32  1  0
 18 33  2  0
 11 34  1  0
 34 35  2  0
 35 36  1  0
 36 37  1  0
 37  5  1  0
 35  8  1  0
 33 13  1  0
 25 20  1  0
M  END
>  <Compound_ID>  (83) 
CHEMBL1796247

>  <Molecule Name>  (83) 
nan

>  <Molecular Weight>  (83) 
541.02

>  <AlogP>  (83) 
4.32

>  <Smiles>  (83) 
COCCN1CCc2ccc(Nc3ncc(Cl)c(N[C@@H]4CCCC[C@H]4NC(=O)C(F)(F)F)n3)cc2CC1

>  <Standard Type>  (83) 
IC50

>  <Standard Relation>  (83) 
'='

>  <Standard Units>  (83) 
nM

>  <Standard Value>  (83) 
22.0

>  <Assay ChEMBL ID>  (83) 
CHEMBL1798383

>  <Assay Description>  (83) 
Inhibition of ALK

>  <BAO Format ID>  (83) 
BAO_0000357

>  <BAO Label>  (83) 
single protein format

>  <Assay Organism>  (83) 
None

>  <Target ChEMBL ID>  (83) 
CHEMBL4247

>  <Target Name>  (83) 
ALK tyrosine kinase receptor

>  <Target Organism>  (83) 
Homo sapiens

>  <Target Type>  (83) 
SINGLE PROTEIN

>  <Document ChEMBL ID>  (83) 
CHEMBL1795227

>  <Source Description>  (83) 
Scientific Literature

>  <Document Journal>  (83) 
Bioorg Med Chem Lett

>  <Document Year>  (83) 
2011.0

>  <Active>  (83) 
1.0

>  <bits>  (83) 
<rdkit.DataStructs.cDataStructs.ExplicitBitVect object at 0x000002422F1E2D50>

>  <Group>  (83) 
G2

$$$$

     RDKit          2D

 37 40  0  0  0  0  0  0  0  0999 V2000
    3.9786   -1.2990    0.0000 C   0  0  0  0  0  0  0  0  0  0  0  0
    3.2286   -0.0000    0.0000 C   0  0  0  0  0  0  0  0  0  0  0  0
    1.7286    0.0000    0.0000 N   0  0  0  0  0  0  0  0  0  0  0  0
    1.0777    1.3515    0.0000 C   0  0  0  0  0  0  0  0  0  0  0  0
    2.0130    2.5242    0.0000 O   0  0  0  0  0  0  0  0  0  0  0  0
   -0.3846    1.6852    0.0000 C   0  0  0  0  0  0  0  0  0  0  0  0
   -1.5574    0.7500    0.0000 C   0  0  0  0  0  0  0  0  0  0  0  0
   -1.5574   -0.7500    0.0000 C   0  0  0  0  0  0  0  0  0  0  0  0
   -0.3846   -1.6852    0.0000 C   0  0  0  0  0  0  0  0  0  0  0  0
    1.0777   -1.3515    0.0000 C   0  0  0  0  0  0  0  0  0  0  0  0
    2.0980   -2.4510    0.0000 C   0  0  0  0  0  0  0  0  0  0  0  0
    1.6559   -3.8844    0.0000 C   0  0  0  0  0  0  0  0  0  0  0  0
    0.1935   -4.2182    0.0000 C   0  0  0  0  0  0  0  0  0  0  0  0
   -0.2487   -5.6515    0.0000 N   0  0  0  0  0  0  0  0  0  0  0  0
   -1.7110   -5.9853    0.0000 C   0  0  0  0  0  0  0  0  0  0  0  0
   -2.7313   -4.8857    0.0000 N   0  0  0  0  0  0  0  0  0  0  0  0
   -4.1937   -5.2195    0.0000 C   0  0  0  0  0  0  0  0  0  0  0  0
   -4.6358   -6.6529    0.0000 C   0  0  0  0  0  0  0  0  0  0  0  0
   -6.0982   -6.9867    0.0000 Cl  0  0  0  0  0  0  0  0  0  0  0  0
   -3.6156   -7.7525    0.0000 C   0  0  0  0  0  0  0  0  0  0  0  0
   -4.0577   -9.1858    0.0000 N   0  0  0  0  0  0  0  0  0  0  0  0
   -3.0374  -10.2854    0.0000 C   0  0  0  0  0  0  0  0  0  0  0  0
   -1.5750   -9.9516    0.0000 C   0  0  0  0  0  0  0  0  0  0  0  0
   -0.5548  -11.0512    0.0000 C   0  0  0  0  0  0  0  0  0  0  0  0
   -0.9969  -12.4845    0.0000 C   0  0  0  0  0  0  0  0  0  0  0  0
   -2.4593  -12.8183    0.0000 C   0  0  0  0  0  0  0  0  0  0  0  0
   -3.4796  -11.7187    0.0000 C   0  0  0  0  0  0  0  0  0  0  0  0
   -4.9420  -12.0525    0.0000 S   0  0  0  0  0  0  0  0  0  0  0  0
   -4.6082  -13.5149    0.0000 O   0  0  0  0  0  0  0  0  0  0  0  0
   -5.2757  -10.5901    0.0000 O   0  0  0  0  0  0  0  0  0  0  0  0
   -6.4044  -12.3863    0.0000 N   0  0  0  0  0  0  0  0  0  0  0  0
   -6.8465  -13.8197    0.0000 C   0  0  0  0  0  0  0  0  0  0  0  0
   -7.4246  -11.2867    0.0000 C   0  0  0  0  0  0  0  0  0  0  0  0
   -2.1532   -7.4187    0.0000 N   0  0  0  0  0  0  0  0  0  0  0  0
   -0.8268   -3.1186    0.0000 C   0  0  0  0  0  0  0  0  0  0  0  0
   -2.2892   -3.4524    0.0000 O   0  0  0  0  0  0  0  0  0  0  0  0
   -3.3094   -2.3528    0.0000 C   0  0  0  0  0  0  0  0  0  0  0  0
  1  2  1  0
  2  3  1  0
  3  4  1  0
  4  5  2  0
  4  6  1  0
  6  7  1  0
  7  8  1  0
  8  9  1  0
  9 10  2  0
 10 11  1  0
 11 12  2  0
 12 13  1  0
 13 14  1  0
 14 15  1  0
 15 16  2  0
 16 17  1  0
 17 18  2  0
 18 19  1  0
 18 20  1  0
 20 21  1  0
 21 22  1  0
 22 23  2  0
 23 24  1  0
 24 25  2  0
 25 26  1  0
 26 27  2  0
 27 28  1  0
 28 29  2  0
 28 30  2  0
 28 31  1  0
 31 32  1  0
 31 33  1  0
 20 34  2  0
 13 35  2  0
 35 36  1  0
 36 37  1  0
 10  3  1  0
 34 15  1  0
 35  9  1  0
 27 22  1  0
M  END
>  <Compound_ID>  (84) 
CHEMBL2042831

>  <Molecule Name>  (84) 
nan

>  <Molecular Weight>  (84) 
545.07

>  <AlogP>  (84) 
4.57

>  <Smiles>  (84) 
CCN1C(=O)CCCc2c1ccc(Nc1ncc(Cl)c(Nc3ccccc3S(=O)(=O)N(C)C)n1)c2OC

>  <Standard Type>  (84) 
IC50

>  <Standard Relation>  (84) 
'='

>  <Standard Units>  (84) 
nM

>  <Standard Value>  (84) 
8.0

>  <Assay ChEMBL ID>  (84) 
CHEMBL2044751

>  <Assay Description>  (84) 
Inhibition of ALK

>  <BAO Format ID>  (84) 
BAO_0000357

>  <BAO Label>  (84) 
single protein format

>  <Assay Organism>  (84) 
None

>  <Target ChEMBL ID>  (84) 
CHEMBL4247

>  <Target Name>  (84) 
ALK tyrosine kinase receptor

>  <Target Organism>  (84) 
Homo sapiens

>  <Target Type>  (84) 
SINGLE PROTEIN

>  <Document ChEMBL ID>  (84) 
CHEMBL2040771

>  <Source Description>  (84) 
Scientific Literature

>  <Document Journal>  (84) 
ACS Med Chem Lett

>  <Document Year>  (84) 
2010.0

>  <Active>  (84) 
1.0

>  <bits>  (84) 
<rdkit.DataStructs.cDataStructs.ExplicitBitVect object at 0x000002422F1E1F50>

>  <Group>  (84) 
G2

$$$$

     RDKit          2D

 45 49  0  0  0  0  0  0  0  0999 V2000
    3.7500   -1.2990    0.0000 C   0  0  0  0  0  0  0  0  0  0  0  0
    3.0000    0.0000    0.0000 O   0  0  0  0  0  0  0  0  0  0  0  0
    1.5000    0.0000    0.0000 C   0  0  0  0  0  0  0  0  0  0  0  0
    0.7500   -1.2990    0.0000 C   0  0  0  0  0  0  0  0  0  0  0  0
   -0.7500   -1.2990    0.0000 C   0  0  0  0  0  0  0  0  0  0  0  0
   -1.5000   -2.5981    0.0000 N   0  0  0  0  0  0  0  0  0  0  0  0
   -3.0000   -2.5981    0.0000 C   0  0  0  0  0  0  0  0  0  0  0  0
   -3.7500   -3.8971    0.0000 C   0  0  0  0  0  0  0  0  0  0  0  0
   -3.0000   -5.1962    0.0000 N   0  0  0  0  0  0  0  0  0  0  0  0
   -3.7500   -6.4952    0.0000 C   0  0  0  0  0  0  0  0  0  0  0  0
   -3.0000   -7.7942    0.0000 O   0  0  0  0  0  0  0  0  0  0  0  0
   -5.2500   -6.4952    0.0000 C   0  0  0  0  0  0  0  0  0  0  0  0
   -6.0000   -7.7942    0.0000 O   0  0  0  0  0  0  0  0  0  0  0  0
   -1.5000   -5.1962    0.0000 C   0  0  0  0  0  0  0  0  0  0  0  0
   -0.7500   -3.8971    0.0000 C   0  0  0  0  0  0  0  0  0  0  0  0
   -1.5000    0.0000    0.0000 C   0  0  0  0  0  0  0  0  0  0  0  0
   -0.7500    1.2990    0.0000 C   0  0  0  0  0  0  0  0  0  0  0  0
    0.7500    1.2990    0.0000 C   0  0  0  0  0  0  0  0  0  0  0  0
    1.5000    2.5981    0.0000 N   0  0  0  0  0  0  0  0  0  0  0  0
    3.0000    2.5981    0.0000 C   0  0  0  0  0  0  0  0  0  0  0  0
    3.7500    1.2990    0.0000 N   0  0  0  0  0  0  0  0  0  0  0  0
    5.2500    1.2990    0.0000 C   0  0  0  0  0  0  0  0  0  0  0  0
    6.0000    2.5981    0.0000 C   0  0  0  0  0  0  0  0  0  0  0  0
    7.5000    2.5981    0.0000 Cl  0  0  0  0  0  0  0  0  0  0  0  0
    5.2500    3.8971    0.0000 C   0  0  0  0  0  0  0  0  0  0  0  0
    6.0000    5.1962    0.0000 N   0  0  0  0  0  0  0  0  0  0  0  0
    5.2500    6.4952    0.0000 C   0  0  0  0  0  0  0  0  0  0  0  0
    6.0000    7.7942    0.0000 C   0  0  0  0  0  0  0  0  0  0  0  0
    5.2500    9.0933    0.0000 C   0  0  0  0  0  0  0  0  0  0  0  0
    3.7500    9.0933    0.0000 C   0  0  0  0  0  0  0  0  0  0  0  0
    3.0000   10.3923    0.0000 N   0  0  0  0  0  0  0  0  0  0  0  0
    3.7500   11.6913    0.0000 C   0  0  0  0  0  0  0  0  0  0  0  0
    3.0000   12.9904    0.0000 C   0  0  0  0  0  0  0  0  0  0  0  0
    1.5000   12.9904    0.0000 N   0  0  0  0  0  0  0  0  0  0  0  0
    0.7500   14.2894    0.0000 C   0  0  0  0  0  0  0  0  0  0  0  0
   -0.7500   14.2894    0.0000 O   0  0  0  0  0  0  0  0  0  0  0  0
    1.5000   15.5885    0.0000 C   0  0  0  0  0  0  0  0  0  0  0  0
    0.7500   16.8875    0.0000 O   0  0  0  0  0  0  0  0  0  0  0  0
    0.7500   11.6913    0.0000 C   0  0  0  0  0  0  0  0  0  0  0  0
    1.5000   10.3923    0.0000 C   0  0  0  0  0  0  0  0  0  0  0  0
    3.0000    7.7942    0.0000 C   0  0  0  0  0  0  0  0  0  0  0  0
    3.7500    6.4952    0.0000 C   0  0  0  0  0  0  0  0  0  0  0  0
    3.0000    5.1962    0.0000 O   0  0  0  0  0  0  0  0  0  0  0  0
    1.5000    5.1962    0.0000 C   0  0  0  0  0  0  0  0  0  0  0  0
    3.7500    3.8971    0.0000 N   0  0  0  0  0  0  0  0  0  0  0  0
  1  2  1  0
  2  3  1  0
  3  4  2  0
  4  5  1  0
  5  6  1  0
  6  7  1  0
  7  8  1  0
  8  9  1  0
  9 10  1  0
 10 11  2  0
 10 12  1  0
 12 13  1  0
  9 14  1  0
 14 15  1  0
  5 16  2  0
 16 17  1  0
 17 18  2  0
 18 19  1  0
 19 20  1  0
 20 21  2  0
 21 22  1  0
 22 23  2  0
 23 24  1  0
 23 25  1  0
 25 26  1  0
 26 27  1  0
 27 28  2  0
 28 29  1  0
 29 30  2  0
 30 31  1  0
 31 32  1  0
 32 33  1  0
 33 34  1  0
 34 35  1  0
 35 36  2  0
 35 37  1  0
 37 38  1  0
 34 39  1  0
 39 40  1  0
 30 41  1  0
 41 42  2  0
 42 43  1  0
 43 44  1  0
 25 45  2  0
 18  3  1  0
 45 20  1  0
 15  6  1  0
 42 27  1  0
 40 31  1  0
M  END
>  <Compound_ID>  (85) 
CHEMBL3916883

>  <Molecule Name>  (85) 
nan

>  <Molecular Weight>  (85) 
641.13

>  <AlogP>  (85) 
1.92

>  <Smiles>  (85) 
COc1cc(N2CCN(C(=O)CO)CC2)ccc1Nc1ncc(Cl)c(Nc2ccc(N3CCN(C(=O)CO)CC3)cc2OC)n1

>  <Standard Type>  (85) 
IC50

>  <Standard Relation>  (85) 
'='

>  <Standard Units>  (85) 
nM

>  <Standard Value>  (85) 
11.0

>  <Assay ChEMBL ID>  (85) 
CHEMBL3887133

>  <Assay Description>  (85) 
Homogeneous Time-resolved fluorescence (HTRF) Assay: In order to measure the inhibitory activity against ALK, a Grainer 96-well round type bottom plate was added with the compounds (2 μl) prepared in Examples 1 to 89, and mixed with ALK enzyme (1 ul) and a peptide substrate (2 μl) with biotin attached thereto for 15 minutes and cultured thereafter. Here, ATP solution (5 μl) was added thereto and kinase reaction was performed at room temperature for 30 minutes. XL 665 (5 μl), to which Streptavidin dissolved in ethylenediaminetetraacetic acid solution was attached, anti-phosphotyrosine antibody (5 μl), to which europium (Eu3+) was attached, were added to a reaction solution to stop the reaction, cultured for 1 hour, and analyzed using Homogeneous Time-resolved fluorescence (HTRF, Cisbio). The result was read by a Wallac Envision 2103 device at the wavelength range of 615/665 nm.

>  <BAO Format ID>  (85) 
BAO_0000357

>  <BAO Label>  (85) 
single protein format

>  <Assay Organism>  (85) 
None

>  <Target ChEMBL ID>  (85) 
CHEMBL4247

>  <Target Name>  (85) 
ALK tyrosine kinase receptor

>  <Target Organism>  (85) 
Homo sapiens

>  <Target Type>  (85) 
SINGLE PROTEIN

>  <Document ChEMBL ID>  (85) 
CHEMBL3886178

>  <Source Description>  (85) 
BindingDB Database

>  <Document Journal>  (85) 
nan

>  <Document Year>  (85) 
2015.0

>  <Active>  (85) 
1.0

>  <bits>  (85) 
<rdkit.DataStructs.cDataStructs.ExplicitBitVect object at 0x000002422F1E19A0>

>  <Group>  (85) 
G2

$$$$

     RDKit          2D

 40 43  0  0  0  0  0  0  0  0999 V2000
    3.0000    0.0000    0.0000 C   0  0  0  0  0  0  0  0  0  0  0  0
    1.5000    0.0000    0.0000 C   0  0  0  0  0  0  0  0  0  0  0  0
    0.7500   -1.2990    0.0000 C   0  0  0  0  0  0  0  0  0  0  0  0
   -0.7500   -1.2990    0.0000 C   0  0  0  0  0  0  0  0  0  0  0  0
   -1.5000   -2.5981    0.0000 N   0  0  0  0  0  0  0  0  0  0  0  0
   -3.0000   -2.5981    0.0000 C   0  0  0  0  0  0  0  0  0  0  0  0
   -3.7500   -1.2990    0.0000 N   0  0  0  0  0  0  0  0  0  0  0  0
   -5.2500   -1.2990    0.0000 C   0  0  0  0  0  0  0  0  0  0  0  0
   -6.0000   -2.5981    0.0000 C   0  0  0  0  0  0  0  0  0  0  0  0
   -7.5000   -2.5981    0.0000 Cl  0  0  0  0  0  0  0  0  0  0  0  0
   -5.2500   -3.8971    0.0000 C   0  0  0  0  0  0  0  0  0  0  0  0
   -6.0000   -5.1962    0.0000 N   0  0  0  0  0  0  0  0  0  0  0  0
   -5.2500   -6.4952    0.0000 C   0  0  0  0  0  0  0  0  0  0  0  0
   -3.7582   -6.6520    0.0000 C   0  0  0  0  0  0  0  0  0  0  0  0
   -3.4463   -8.1192    0.0000 N   0  0  0  0  0  0  0  0  0  0  0  0
   -2.0760   -8.7293    0.0000 C   0  0  0  0  0  0  0  0  0  0  0  0
   -4.7454   -8.8692    0.0000 N   0  0  0  0  0  0  0  0  0  0  0  0
   -5.8601   -7.8655    0.0000 C   0  0  0  0  0  0  0  0  0  0  0  0
   -7.3273   -8.1774    0.0000 S   0  0  0  0  0  0  0  0  0  0  0  0
   -7.6392   -6.7102    0.0000 O   0  0  0  0  0  0  0  0  0  0  0  0
   -7.0155   -9.6446    0.0000 O   0  0  0  0  0  0  0  0  0  0  0  0
   -8.7945   -8.4892    0.0000 C   0  0  0  0  0  0  0  0  0  0  0  0
   -9.7982   -7.3745    0.0000 C   0  0  0  0  0  0  0  0  0  0  0  0
   -9.2581   -9.9158    0.0000 C   0  0  0  0  0  0  0  0  0  0  0  0
   -3.7500   -3.8971    0.0000 N   0  0  0  0  0  0  0  0  0  0  0  0
   -1.5000    0.0000    0.0000 C   0  0  0  0  0  0  0  0  0  0  0  0
   -3.0000    0.0000    0.0000 O   0  0  0  0  0  0  0  0  0  0  0  0
   -3.7500    1.2990    0.0000 C   0  0  0  0  0  0  0  0  0  0  0  0
   -4.5000    2.5981    0.0000 F   0  0  0  0  0  0  0  0  0  0  0  0
   -5.0490    0.5490    0.0000 F   0  0  0  0  0  0  0  0  0  0  0  0
   -2.4510    2.0490    0.0000 F   0  0  0  0  0  0  0  0  0  0  0  0
   -0.7500    1.2990    0.0000 C   0  0  0  0  0  0  0  0  0  0  0  0
    0.7500    1.2990    0.0000 C   0  0  0  0  0  0  0  0  0  0  0  0
    1.5000    2.5981    0.0000 C   0  0  0  0  0  0  0  0  0  0  0  0
    3.0000    2.5981    0.0000 C   0  0  0  0  0  0  0  0  0  0  0  0
    3.7500    3.8971    0.0000 C   0  0  0  0  0  0  0  0  0  0  0  0
    3.0000    5.1962    0.0000 N   0  0  0  0  0  0  0  0  0  0  0  0
    3.7500    6.4952    0.0000 C   0  0  0  0  0  0  0  0  0  0  0  0
    1.5000    5.1962    0.0000 C   0  0  0  0  0  0  0  0  0  0  0  0
    0.7500    3.8971    0.0000 C   0  0  0  0  0  0  0  0  0  0  0  0
  1  2  1  0
  2  3  2  0
  3  4  1  0
  4  5  1  0
  5  6  1  0
  6  7  2  0
  7  8  1  0
  8  9  2  0
  9 10  1  0
  9 11  1  0
 11 12  1  0
 12 13  1  0
 13 14  2  0
 14 15  1  0
 15 16  1  0
 15 17  1  0
 17 18  2  0
 18 19  1  0
 19 20  2  0
 19 21  2  0
 19 22  1  0
 22 23  1  0
 22 24  1  0
 11 25  2  0
  4 26  2  0
 26 27  1  0
 27 28  1  0
 28 29  1  0
 28 30  1  0
 28 31  1  0
 26 32  1  0
 32 33  2  0
 33 34  1  0
 34 35  1  0
 35 36  1  0
 36 37  1  0
 37 38  1  0
 37 39  1  0
 39 40  1  0
 33  2  1  0
 40 34  1  0
 25  6  1  0
 18 13  1  0
M  END
>  <Compound_ID>  (86) 
CHEMBL3604638

>  <Molecule Name>  (86) 
nan

>  <Molecular Weight>  (86) 
602.08

>  <AlogP>  (86) 
5.55

>  <Smiles>  (86) 
Cc1cc(Nc2ncc(Cl)c(Nc3cn(C)nc3S(=O)(=O)C(C)C)n2)c(OC(F)(F)F)cc1C1CCN(C)CC1

>  <Standard Type>  (86) 
IC50

>  <Standard Relation>  (86) 
'='

>  <Standard Units>  (86) 
nM

>  <Standard Value>  (86) 
6.0

>  <Assay ChEMBL ID>  (86) 
CHEMBL3607640

>  <Assay Description>  (86) 
Inhibition of wild type human recombinant ALK using TK substrate-biotin incubated for 30 mins by HTRF assay

>  <BAO Format ID>  (86) 
BAO_0000357

>  <BAO Label>  (86) 
single protein format

>  <Assay Organism>  (86) 
Homo sapiens

>  <Target ChEMBL ID>  (86) 
CHEMBL4247

>  <Target Name>  (86) 
ALK tyrosine kinase receptor

>  <Target Organism>  (86) 
Homo sapiens

>  <Target Type>  (86) 
SINGLE PROTEIN

>  <Document ChEMBL ID>  (86) 
CHEMBL3603807

>  <Source Description>  (86) 
Scientific Literature

>  <Document Journal>  (86) 
Bioorg Med Chem Lett

>  <Document Year>  (86) 
2015.0

>  <Active>  (86) 
1.0

>  <bits>  (86) 
<rdkit.DataStructs.cDataStructs.ExplicitBitVect object at 0x000002422F1E3E60>

>  <Group>  (86) 
G2

$$$$

     RDKit          2D

 39 42  0  0  0  0  0  0  0  0999 V2000
    3.0000    0.0000    0.0000 C   0  0  0  0  0  0  0  0  0  0  0  0
    1.5000    0.0000    0.0000 C   0  0  0  0  0  0  0  0  0  0  0  0
    0.7500   -1.2990    0.0000 C   0  0  0  0  0  0  0  0  0  0  0  0
   -0.7500   -1.2990    0.0000 C   0  0  0  0  0  0  0  0  0  0  0  0
   -1.5000   -2.5981    0.0000 N   0  0  0  0  0  0  0  0  0  0  0  0
   -0.7500   -3.8971    0.0000 C   0  0  0  0  0  0  0  0  0  0  0  0
   -1.5000   -5.1962    0.0000 N   0  0  0  0  0  0  0  0  0  0  0  0
   -0.7500   -6.4952    0.0000 C   0  0  0  0  0  0  0  0  0  0  0  0
    0.7500   -6.4952    0.0000 C   0  0  0  0  0  0  0  0  0  0  0  0
    1.5000   -7.7942    0.0000 Cl  0  0  0  0  0  0  0  0  0  0  0  0
    1.5000   -5.1962    0.0000 C   0  0  0  0  0  0  0  0  0  0  0  0
    3.0000   -5.1962    0.0000 N   0  0  0  0  0  0  0  0  0  0  0  0
    3.7500   -3.8971    0.0000 C   0  0  0  0  0  0  0  0  0  0  0  0
    3.1399   -2.5268    0.0000 C   0  0  0  0  0  0  0  0  0  0  0  0
    4.2546   -1.5231    0.0000 N   0  0  0  0  0  0  0  0  0  0  0  0
    4.0978   -0.0313    0.0000 C   0  0  0  0  0  0  0  0  0  0  0  0
    5.5537   -2.2731    0.0000 N   0  0  0  0  0  0  0  0  0  0  0  0
    5.2418   -3.7403    0.0000 C   0  0  0  0  0  0  0  0  0  0  0  0
    6.2455   -4.8550    0.0000 S   0  0  0  0  0  0  0  0  0  0  0  0
    5.1308   -5.8587    0.0000 O   0  0  0  0  0  0  0  0  0  0  0  0
    7.3602   -3.8513    0.0000 O   0  0  0  0  0  0  0  0  0  0  0  0
    7.2492   -5.9698    0.0000 C   0  0  0  0  0  0  0  0  0  0  0  0
    6.7856   -7.3963    0.0000 C   0  0  0  0  0  0  0  0  0  0  0  0
    8.7164   -5.6579    0.0000 C   0  0  0  0  0  0  0  0  0  0  0  0
    0.7500   -3.8971    0.0000 N   0  0  0  0  0  0  0  0  0  0  0  0
   -1.5000    0.0000    0.0000 C   0  0  0  0  0  0  0  0  0  0  0  0
   -3.0000    0.0000    0.0000 C   0  0  0  0  0  0  0  0  0  0  0  0
   -4.5000    0.0000    0.0000 F   0  0  0  0  0  0  0  0  0  0  0  0
   -3.0000    1.5000    0.0000 F   0  0  0  0  0  0  0  0  0  0  0  0
   -3.0000   -1.5000    0.0000 F   0  0  0  0  0  0  0  0  0  0  0  0
   -0.7500    1.2990    0.0000 C   0  0  0  0  0  0  0  0  0  0  0  0
    0.7500    1.2990    0.0000 C   0  0  0  0  0  0  0  0  0  0  0  0
    1.5000    2.5981    0.0000 C   0  0  0  0  0  0  0  0  0  0  0  0
    3.0000    2.5981    0.0000 C   0  0  0  0  0  0  0  0  0  0  0  0
    3.7500    3.8971    0.0000 C   0  0  0  0  0  0  0  0  0  0  0  0
    3.0000    5.1962    0.0000 N   0  0  0  0  0  0  0  0  0  0  0  0
    3.7500    6.4952    0.0000 C   0  0  0  0  0  0  0  0  0  0  0  0
    1.5000    5.1962    0.0000 C   0  0  0  0  0  0  0  0  0  0  0  0
    0.7500    3.8971    0.0000 C   0  0  0  0  0  0  0  0  0  0  0  0
  1  2  1  0
  2  3  2  0
  3  4  1  0
  4  5  1  0
  5  6  1  0
  6  7  2  0
  7  8  1  0
  8  9  2  0
  9 10  1  0
  9 11  1  0
 11 12  1  0
 12 13  1  0
 13 14  2  0
 14 15  1  0
 15 16  1  0
 15 17  1  0
 17 18  2  0
 18 19  1  0
 19 20  2  0
 19 21  2  0
 19 22  1  0
 22 23  1  0
 22 24  1  0
 11 25  2  0
  4 26  2  0
 26 27  1  0
 27 28  1  0
 27 29  1  0
 27 30  1  0
 26 31  1  0
 31 32  2  0
 32 33  1  0
 33 34  1  0
 34 35  1  0
 35 36  1  0
 36 37  1  0
 36 38  1  0
 38 39  1  0
 32  2  1  0
 39 33  1  0
 25  6  1  0
 18 13  1  0
M  END
>  <Compound_ID>  (87) 
CHEMBL3604639

>  <Molecule Name>  (87) 
nan

>  <Molecular Weight>  (87) 
586.08

>  <AlogP>  (87) 
5.67

>  <Smiles>  (87) 
Cc1cc(Nc2ncc(Cl)c(Nc3cn(C)nc3S(=O)(=O)C(C)C)n2)c(C(F)(F)F)cc1C1CCN(C)CC1

>  <Standard Type>  (87) 
IC50

>  <Standard Relation>  (87) 
'='

>  <Standard Units>  (87) 
nM

>  <Standard Value>  (87) 
22.0

>  <Assay ChEMBL ID>  (87) 
CHEMBL3607640

>  <Assay Description>  (87) 
Inhibition of wild type human recombinant ALK using TK substrate-biotin incubated for 30 mins by HTRF assay

>  <BAO Format ID>  (87) 
BAO_0000357

>  <BAO Label>  (87) 
single protein format

>  <Assay Organism>  (87) 
Homo sapiens

>  <Target ChEMBL ID>  (87) 
CHEMBL4247

>  <Target Name>  (87) 
ALK tyrosine kinase receptor

>  <Target Organism>  (87) 
Homo sapiens

>  <Target Type>  (87) 
SINGLE PROTEIN

>  <Document ChEMBL ID>  (87) 
CHEMBL3603807

>  <Source Description>  (87) 
Scientific Literature

>  <Document Journal>  (87) 
Bioorg Med Chem Lett

>  <Document Year>  (87) 
2015.0

>  <Active>  (87) 
1.0

>  <bits>  (87) 
<rdkit.DataStructs.cDataStructs.ExplicitBitVect object at 0x000002422F1E36F0>

>  <Group>  (87) 
G2

$$$$

     RDKit          2D

 38 42  0  0  0  0  0  0  0  0999 V2000
   -6.2940    7.2357    0.0000 C   0  0  0  0  0  0  0  0  0  0  0  0
   -5.1793    6.2320    0.0000 O   0  0  0  0  0  0  0  0  0  0  0  0
   -3.7527    6.6955    0.0000 C   0  0  0  0  0  0  0  0  0  0  0  0
   -3.4408    8.1628    0.0000 C   0  0  0  0  0  0  0  0  0  0  0  0
   -2.0143    8.6263    0.0000 C   0  0  0  0  0  0  0  0  0  0  0  0
   -1.7024   10.0935    0.0000 N   0  0  0  0  0  0  0  0  0  0  0  0
   -0.2758   10.5570    0.0000 C   0  0  0  0  0  0  0  0  0  0  0  0
    0.0361   12.0242    0.0000 C   0  0  0  0  0  0  0  0  0  0  0  0
   -1.0786   13.0279    0.0000 N   0  0  0  0  0  0  0  0  0  0  0  0
   -0.7668   14.4952    0.0000 C   0  0  0  0  0  0  0  0  0  0  0  0
    0.6598   14.9587    0.0000 C   0  0  0  0  0  0  0  0  0  0  0  0
   -1.8815   15.4989    0.0000 C   0  0  0  0  0  0  0  0  0  0  0  0
   -2.5052   12.5644    0.0000 C   0  0  0  0  0  0  0  0  0  0  0  0
   -2.8171   11.0972    0.0000 C   0  0  0  0  0  0  0  0  0  0  0  0
   -0.8995    7.6226    0.0000 C   0  0  0  0  0  0  0  0  0  0  0  0
   -1.2114    6.1554    0.0000 C   0  0  0  0  0  0  0  0  0  0  0  0
   -2.6380    5.6918    0.0000 C   0  0  0  0  0  0  0  0  0  0  0  0
   -2.9499    4.2246    0.0000 N   0  0  0  0  0  0  0  0  0  0  0  0
   -1.8351    3.2209    0.0000 C   0  0  0  0  0  0  0  0  0  0  0  0
   -0.4086    3.6844    0.0000 N   0  0  0  0  0  0  0  0  0  0  0  0
    0.7062    2.6807    0.0000 C   0  0  0  0  0  0  0  0  0  0  0  0
    2.1328    3.1443    0.0000 N   0  0  0  0  0  0  0  0  0  0  0  0
    2.4446    4.6115    0.0000 C   0  0  0  0  0  0  0  0  0  0  0  0
    1.3299    5.6152    0.0000 C   0  0  0  0  0  0  0  0  0  0  0  0
    1.6418    7.0824    0.0000 C   0  0  0  0  0  0  0  0  0  0  0  0
    3.0684    7.5459    0.0000 C   0  0  0  0  0  0  0  0  0  0  0  0
    4.1831    6.5422    0.0000 C   0  0  0  0  0  0  0  0  0  0  0  0
    5.6097    7.0058    0.0000 F   0  0  0  0  0  0  0  0  0  0  0  0
    3.8712    5.0750    0.0000 C   0  0  0  0  0  0  0  0  0  0  0  0
    4.9859    4.0713    0.0000 C   0  0  0  0  0  0  0  0  0  0  0  0
    6.4125    4.5348    0.0000 N   0  0  0  0  0  0  0  0  0  0  0  0
    4.6741    2.6041    0.0000 O   0  0  0  0  0  0  0  0  0  0  0  0
    0.3943    1.2135    0.0000 C   0  0  0  0  0  0  0  0  0  0  0  0
    1.2760    0.0000    0.0000 C   0  0  0  0  0  0  0  0  0  0  0  0
    0.3943   -1.2135    0.0000 C   0  0  0  0  0  0  0  0  0  0  0  0
   -1.0323   -0.7500    0.0000 N   0  0  0  0  0  0  0  0  0  0  0  0
   -1.0323    0.7500    0.0000 C   0  0  0  0  0  0  0  0  0  0  0  0
   -2.1470    1.7537    0.0000 N   0  0  0  0  0  0  0  0  0  0  0  0
  1  2  1  0
  2  3  1  0
  3  4  2  0
  4  5  1  0
  5  6  1  0
  6  7  1  0
  7  8  1  0
  8  9  1  0
  9 10  1  0
 10 11  1  0
 10 12  1  0
  9 13  1  0
 13 14  1  0
  5 15  2  0
 15 16  1  0
 16 17  2  0
 17 18  1  0
 18 19  1  0
 19 20  2  0
 20 21  1  0
 21 22  1  0
 22 23  1  0
 23 24  2  0
 24 25  1  0
 25 26  2  0
 26 27  1  0
 27 28  1  0
 27 29  2  0
 29 30  1  0
 30 31  1  0
 30 32  2  0
 21 33  2  0
 33 34  1  0
 34 35  2  0
 35 36  1  0
 36 37  1  0
 37 38  2  0
 17  3  1  0
 38 19  1  0
 14  6  1  0
 29 23  1  0
 37 33  1  0
M  END
>  <Compound_ID>  (88) 
CHEMBL507625

>  <Molecule Name>  (88) 
nan

>  <Molecular Weight>  (88) 
518.6

>  <AlogP>  (88) 
4.22

>  <Smiles>  (88) 
COc1cc(N2CCN(C(C)C)CC2)ccc1Nc1nc(Nc2cccc(F)c2C(N)=O)c2cc[nH]c2n1

>  <Standard Type>  (88) 
IC50

>  <Standard Relation>  (88) 
'='

>  <Standard Units>  (88) 
nM

>  <Standard Value>  (88) 
0.5

>  <Assay ChEMBL ID>  (88) 
CHEMBL1033170

>  <Assay Description>  (88) 
Inhibition of ALK

>  <BAO Format ID>  (88) 
BAO_0000357

>  <BAO Label>  (88) 
single protein format

>  <Assay Organism>  (88) 
None

>  <Target ChEMBL ID>  (88) 
CHEMBL4247

>  <Target Name>  (88) 
ALK tyrosine kinase receptor

>  <Target Organism>  (88) 
Homo sapiens

>  <Target Type>  (88) 
SINGLE PROTEIN

>  <Document ChEMBL ID>  (88) 
CHEMBL1154536

>  <Source Description>  (88) 
Scientific Literature

>  <Document Journal>  (88) 
Bioorg Med Chem Lett

>  <Document Year>  (88) 
2009.0

>  <Active>  (88) 
1.0

>  <bits>  (88) 
<rdkit.DataStructs.cDataStructs.ExplicitBitVect object at 0x000002422F1E2500>

>  <Group>  (88) 
G2

$$$$

     RDKit          2D

 36 39  0  0  0  0  0  0  0  0999 V2000
    3.0000    0.0000    0.0000 C   0  0  0  0  0  0  0  0  0  0  0  0
    1.5000    0.0000    0.0000 C   0  0  0  0  0  0  0  0  0  0  0  0
    0.7500   -1.2990    0.0000 C   0  0  0  0  0  0  0  0  0  0  0  0
   -0.7500   -1.2990    0.0000 C   0  0  0  0  0  0  0  0  0  0  0  0
   -1.5000   -2.5981    0.0000 N   0  0  0  0  0  0  0  0  0  0  0  0
   -3.0000   -2.5981    0.0000 C   0  0  0  0  0  0  0  0  0  0  0  0
   -3.7500   -1.2990    0.0000 N   0  0  0  0  0  0  0  0  0  0  0  0
   -5.2500   -1.2990    0.0000 C   0  0  0  0  0  0  0  0  0  0  0  0
   -6.0000   -2.5981    0.0000 C   0  0  0  0  0  0  0  0  0  0  0  0
   -7.5000   -2.5981    0.0000 Cl  0  0  0  0  0  0  0  0  0  0  0  0
   -5.2500   -3.8971    0.0000 C   0  0  0  0  0  0  0  0  0  0  0  0
   -6.0000   -5.1962    0.0000 N   0  0  0  0  0  0  0  0  0  0  0  0
   -5.2500   -6.4952    0.0000 C   0  0  0  0  0  0  0  0  0  0  0  0
   -3.7582   -6.6520    0.0000 C   0  0  0  0  0  0  0  0  0  0  0  0
   -3.4463   -8.1192    0.0000 N   0  0  0  0  0  0  0  0  0  0  0  0
   -2.0760   -8.7293    0.0000 C   0  0  0  0  0  0  0  0  0  0  0  0
   -4.7454   -8.8692    0.0000 N   0  0  0  0  0  0  0  0  0  0  0  0
   -5.8601   -7.8655    0.0000 C   0  0  0  0  0  0  0  0  0  0  0  0
   -7.3273   -8.1774    0.0000 S   0  0  0  0  0  0  0  0  0  0  0  0
   -7.6392   -6.7102    0.0000 O   0  0  0  0  0  0  0  0  0  0  0  0
   -7.0155   -9.6446    0.0000 O   0  0  0  0  0  0  0  0  0  0  0  0
   -8.7945   -8.4892    0.0000 C   0  0  0  0  0  0  0  0  0  0  0  0
   -9.7982   -7.3745    0.0000 C   0  0  0  0  0  0  0  0  0  0  0  0
   -9.2581   -9.9158    0.0000 C   0  0  0  0  0  0  0  0  0  0  0  0
   -3.7500   -3.8971    0.0000 N   0  0  0  0  0  0  0  0  0  0  0  0
   -1.5000    0.0000    0.0000 C   0  0  0  0  0  0  0  0  0  0  0  0
   -3.0000    0.0000    0.0000 O   0  0  0  0  0  0  0  0  0  0  0  0
   -3.7500    1.2990    0.0000 C   0  0  0  0  0  0  0  0  0  0  0  0
   -5.0490    2.0490    0.0000 C   0  0  0  0  0  0  0  0  0  0  0  0
   -3.7500    2.7990    0.0000 C   0  0  0  0  0  0  0  0  0  0  0  0
   -0.7500    1.2990    0.0000 C   0  0  0  0  0  0  0  0  0  0  0  0
    0.7500    1.2990    0.0000 C   0  0  0  0  0  0  0  0  0  0  0  0
    1.5000    2.5981    0.0000 S   0  0  0  0  0  0  0  0  0  0  0  0
    2.2500    3.8971    0.0000 C   0  0  0  0  0  0  0  0  0  0  0  0
    2.7990    1.8481    0.0000 O   0  0  0  0  0  0  0  0  0  0  0  0
    0.2010    3.3481    0.0000 O   0  0  0  0  0  0  0  0  0  0  0  0
  1  2  1  0
  2  3  2  0
  3  4  1  0
  4  5  1  0
  5  6  1  0
  6  7  2  0
  7  8  1  0
  8  9  2  0
  9 10  1  0
  9 11  1  0
 11 12  1  0
 12 13  1  0
 13 14  2  0
 14 15  1  0
 15 16  1  0
 15 17  1  0
 17 18  2  0
 18 19  1  0
 19 20  2  0
 19 21  2  0
 19 22  1  0
 22 23  1  0
 22 24  1  0
 11 25  2  0
  4 26  2  0
 26 27  1  0
 27 28  1  0
 28 29  1  0
 29 30  1  0
 26 31  1  0
 31 32  2  0
 32 33  1  0
 33 34  1  0
 33 35  2  0
 33 36  2  0
 32  2  1  0
 25  6  1  0
 30 28  1  0
 18 13  1  0
M  END
>  <Compound_ID>  (89) 
CHEMBL3604654

>  <Molecule Name>  (89) 
nan

>  <Molecular Weight>  (89) 
555.08

>  <AlogP>  (89) 
3.79

>  <Smiles>  (89) 
Cc1cc(Nc2ncc(Cl)c(Nc3cn(C)nc3S(=O)(=O)C(C)C)n2)c(OC2CC2)cc1S(C)(=O)=O

>  <Standard Type>  (89) 
IC50

>  <Standard Relation>  (89) 
'='

>  <Standard Units>  (89) 
nM

>  <Standard Value>  (89) 
11.0

>  <Assay ChEMBL ID>  (89) 
CHEMBL3607641

>  <Assay Description>  (89) 
Inhibition of ALK L1196M mutant (unknown origin) using TK substrate-biotin incubated for 30 mins by HTRF assay

>  <BAO Format ID>  (89) 
BAO_0000357

>  <BAO Label>  (89) 
single protein format

>  <Assay Organism>  (89) 
Homo sapiens

>  <Target ChEMBL ID>  (89) 
CHEMBL4247

>  <Target Name>  (89) 
ALK tyrosine kinase receptor

>  <Target Organism>  (89) 
Homo sapiens

>  <Target Type>  (89) 
SINGLE PROTEIN

>  <Document ChEMBL ID>  (89) 
CHEMBL3603807

>  <Source Description>  (89) 
Scientific Literature

>  <Document Journal>  (89) 
Bioorg Med Chem Lett

>  <Document Year>  (89) 
2015.0

>  <Active>  (89) 
1.0

>  <bits>  (89) 
<rdkit.DataStructs.cDataStructs.ExplicitBitVect object at 0x000002422F1E13F0>

>  <Group>  (89) 
G2

$$$$

     RDKit          2D

 39 42  0  0  0  0  0  0  0  0999 V2000
    6.2286   -2.5981    0.0000 C   0  0  0  0  0  0  0  0  0  0  0  0
    5.4786   -1.2990    0.0000 O   0  0  0  0  0  0  0  0  0  0  0  0
    3.9786   -1.2990    0.0000 C   0  0  0  0  0  0  0  0  0  0  0  0
    3.2286   -0.0000    0.0000 C   0  0  0  0  0  0  0  0  0  0  0  0
    1.7286    0.0000    0.0000 N   0  0  0  0  0  0  0  0  0  0  0  0
    1.0777    1.3515    0.0000 C   0  0  0  0  0  0  0  0  0  0  0  0
   -0.3846    1.6852    0.0000 C   0  0  0  0  0  0  0  0  0  0  0  0
   -1.5574    0.7500    0.0000 C   0  0  0  0  0  0  0  0  0  0  0  0
   -2.8564    1.5000    0.0000 C   0  0  0  0  0  0  0  0  0  0  0  0
   -4.1555    0.7500    0.0000 C   0  0  0  0  0  0  0  0  0  0  0  0
   -4.1555   -0.7500    0.0000 C   0  0  0  0  0  0  0  0  0  0  0  0
   -5.4545   -1.5000    0.0000 N   0  0  0  0  0  0  0  0  0  0  0  0
   -6.7535   -0.7500    0.0000 C   0  0  0  0  0  0  0  0  0  0  0  0
   -6.7535    0.7500    0.0000 N   0  0  0  0  0  0  0  0  0  0  0  0
   -8.0526    1.5000    0.0000 C   0  0  0  0  0  0  0  0  0  0  0  0
   -9.3516    0.7500    0.0000 C   0  0  0  0  0  0  0  0  0  0  0  0
  -10.6507    1.5000    0.0000 Cl  0  0  0  0  0  0  0  0  0  0  0  0
   -9.3516   -0.7500    0.0000 C   0  0  0  0  0  0  0  0  0  0  0  0
  -10.6507   -1.5000    0.0000 N   0  0  0  0  0  0  0  0  0  0  0  0
  -10.6507   -3.0000    0.0000 C   0  0  0  0  0  0  0  0  0  0  0  0
  -11.9497   -3.7500    0.0000 C   0  0  0  0  0  0  0  0  0  0  0  0
  -11.9497   -5.2500    0.0000 C   0  0  0  0  0  0  0  0  0  0  0  0
  -10.6507   -6.0000    0.0000 C   0  0  0  0  0  0  0  0  0  0  0  0
   -9.3516   -5.2500    0.0000 C   0  0  0  0  0  0  0  0  0  0  0  0
   -9.3516   -3.7500    0.0000 C   0  0  0  0  0  0  0  0  0  0  0  0
   -8.0526   -3.0000    0.0000 N   0  0  0  0  0  0  0  0  0  0  0  0
   -6.7535   -3.7500    0.0000 S   0  0  0  0  0  0  0  0  0  0  0  0
   -7.5035   -5.0490    0.0000 O   0  0  0  0  0  0  0  0  0  0  0  0
   -6.0035   -2.4510    0.0000 O   0  0  0  0  0  0  0  0  0  0  0  0
   -5.4545   -4.5000    0.0000 C   0  0  0  0  0  0  0  0  0  0  0  0
   -5.4545   -6.0000    0.0000 C   0  0  0  0  0  0  0  0  0  0  0  0
   -5.4545   -7.5000    0.0000 F   0  0  0  0  0  0  0  0  0  0  0  0
   -3.9545   -6.0000    0.0000 F   0  0  0  0  0  0  0  0  0  0  0  0
   -6.9545   -6.0000    0.0000 F   0  0  0  0  0  0  0  0  0  0  0  0
   -8.0526   -1.5000    0.0000 N   0  0  0  0  0  0  0  0  0  0  0  0
   -2.8564   -1.5000    0.0000 C   0  0  0  0  0  0  0  0  0  0  0  0
   -1.5574   -0.7500    0.0000 C   0  0  0  0  0  0  0  0  0  0  0  0
   -0.3846   -1.6852    0.0000 C   0  0  0  0  0  0  0  0  0  0  0  0
    1.0777   -1.3515    0.0000 C   0  0  0  0  0  0  0  0  0  0  0  0
  1  2  1  0
  2  3  1  0
  3  4  1  0
  4  5  1  0
  5  6  1  0
  6  7  1  0
  7  8  1  0
  8  9  2  0
  9 10  1  0
 10 11  2  0
 11 12  1  0
 12 13  1  0
 13 14  2  0
 14 15  1  0
 15 16  2  0
 16 17  1  0
 16 18  1  0
 18 19  1  0
 20 19  1  1
 20 21  1  0
 21 22  1  0
 22 23  1  0
 23 24  1  0
 24 25  1  0
 25 26  1  6
 26 27  1  0
 27 28  2  0
 27 29  2  0
 27 30  1  0
 30 31  1  0
 31 32  1  0
 31 33  1  0
 31 34  1  0
 18 35  2  0
 11 36  1  0
 36 37  2  0
 37 38  1  0
 38 39  1  0
 39  5  1  0
 37  8  1  0
 35 13  1  0
 25 20  1  0
M  END
>  <Compound_ID>  (90) 
CHEMBL1796251

>  <Molecule Name>  (90) 
nan

>  <Molecular Weight>  (90) 
591.1

>  <AlogP>  (90) 
4.13

>  <Smiles>  (90) 
COCCN1CCc2ccc(Nc3ncc(Cl)c(N[C@@H]4CCCC[C@H]4NS(=O)(=O)CC(F)(F)F)n3)cc2CC1

>  <Standard Type>  (90) 
IC50

>  <Standard Relation>  (90) 
'='

>  <Standard Units>  (90) 
nM

>  <Standard Value>  (90) 
31.0

>  <Assay ChEMBL ID>  (90) 
CHEMBL1798383

>  <Assay Description>  (90) 
Inhibition of ALK

>  <BAO Format ID>  (90) 
BAO_0000357

>  <BAO Label>  (90) 
single protein format

>  <Assay Organism>  (90) 
None

>  <Target ChEMBL ID>  (90) 
CHEMBL4247

>  <Target Name>  (90) 
ALK tyrosine kinase receptor

>  <Target Organism>  (90) 
Homo sapiens

>  <Target Type>  (90) 
SINGLE PROTEIN

>  <Document ChEMBL ID>  (90) 
CHEMBL1795227

>  <Source Description>  (90) 
Scientific Literature

>  <Document Journal>  (90) 
Bioorg Med Chem Lett

>  <Document Year>  (90) 
2011.0

>  <Active>  (90) 
1.0

>  <bits>  (90) 
<rdkit.DataStructs.cDataStructs.ExplicitBitVect object at 0x000002422F1E0C80>

>  <Group>  (90) 
G2

$$$$

     RDKit          2D

 36 39  0  0  0  0  0  0  0  0999 V2000
    3.7500   -1.2990    0.0000 C   0  0  0  0  0  0  0  0  0  0  0  0
    3.0000    0.0000    0.0000 O   0  0  0  0  0  0  0  0  0  0  0  0
    1.5000    0.0000    0.0000 C   0  0  0  0  0  0  0  0  0  0  0  0
    0.7500   -1.2990    0.0000 C   0  0  0  0  0  0  0  0  0  0  0  0
   -0.7500   -1.2990    0.0000 C   0  0  0  0  0  0  0  0  0  0  0  0
   -1.5000   -2.5981    0.0000 N   0  0  0  0  0  0  0  0  0  0  0  0
   -3.0000   -2.5981    0.0000 C   0  0  0  0  0  0  0  0  0  0  0  0
   -3.7500   -3.8971    0.0000 C   0  0  0  0  0  0  0  0  0  0  0  0
   -3.0000   -5.1962    0.0000 N   0  0  0  0  0  0  0  0  0  0  0  0
   -3.7500   -6.4952    0.0000 C   0  0  0  0  0  0  0  0  0  0  0  0
   -5.2500   -6.4952    0.0000 C   0  0  0  0  0  0  0  0  0  0  0  0
   -6.0000   -7.7942    0.0000 O   0  0  0  0  0  0  0  0  0  0  0  0
   -1.5000   -5.1962    0.0000 C   0  0  0  0  0  0  0  0  0  0  0  0
   -0.7500   -3.8971    0.0000 C   0  0  0  0  0  0  0  0  0  0  0  0
   -1.5000    0.0000    0.0000 C   0  0  0  0  0  0  0  0  0  0  0  0
   -0.7500    1.2990    0.0000 C   0  0  0  0  0  0  0  0  0  0  0  0
    0.7500    1.2990    0.0000 C   0  0  0  0  0  0  0  0  0  0  0  0
    1.5000    2.5981    0.0000 N   0  0  0  0  0  0  0  0  0  0  0  0
    3.0000    2.5981    0.0000 C   0  0  0  0  0  0  0  0  0  0  0  0
    3.7500    1.2990    0.0000 N   0  0  0  0  0  0  0  0  0  0  0  0
    5.2500    1.2990    0.0000 C   0  0  0  0  0  0  0  0  0  0  0  0
    6.0000    2.5981    0.0000 C   0  0  0  0  0  0  0  0  0  0  0  0
    7.5000    2.5981    0.0000 Cl  0  0  0  0  0  0  0  0  0  0  0  0
    5.2500    3.8971    0.0000 C   0  0  0  0  0  0  0  0  0  0  0  0
    6.0000    5.1962    0.0000 N   0  0  0  0  0  0  0  0  0  0  0  0
    5.2500    6.4952    0.0000 C   0  0  0  0  0  0  0  0  0  0  0  0
    3.7500    6.4952    0.0000 C   0  0  0  0  0  0  0  0  0  0  0  0
    3.0000    7.7942    0.0000 C   0  0  0  0  0  0  0  0  0  0  0  0
    3.7500    9.0933    0.0000 C   0  0  0  0  0  0  0  0  0  0  0  0
    5.2500    9.0933    0.0000 C   0  0  0  0  0  0  0  0  0  0  0  0
    6.0000    7.7942    0.0000 C   0  0  0  0  0  0  0  0  0  0  0  0
    7.5000    7.7942    0.0000 P   0  0  0  0  0  0  0  0  0  0  0  0
    7.5000    6.2942    0.0000 C   0  0  0  0  0  0  0  0  0  0  0  0
    7.5000    9.2942    0.0000 C   0  0  0  0  0  0  0  0  0  0  0  0
    9.0000    7.7942    0.0000 O   0  0  0  0  0  0  0  0  0  0  0  0
    3.7500    3.8971    0.0000 N   0  0  0  0  0  0  0  0  0  0  0  0
  1  2  1  0
  2  3  1  0
  3  4  2  0
  4  5  1  0
  5  6  1  0
  6  7  1  0
  7  8  1  0
  8  9  1  0
  9 10  1  0
 10 11  1  0
 11 12  1  0
  9 13  1  0
 13 14  1  0
  5 15  2  0
 15 16  1  0
 16 17  2  0
 17 18  1  0
 18 19  1  0
 19 20  2  0
 20 21  1  0
 21 22  2  0
 22 23  1  0
 22 24  1  0
 24 25  1  0
 25 26  1  0
 26 27  2  0
 27 28  1  0
 28 29  2  0
 29 30  1  0
 30 31  2  0
 31 32  1  0
 32 33  1  0
 32 34  1  0
 32 35  2  0
 24 36  2  0
 17  3  1  0
 36 19  1  0
 14  6  1  0
 31 26  1  0
M  END
>  <Compound_ID>  (91) 
CHEMBL3823235

>  <Molecule Name>  (91) 
nan

>  <Molecular Weight>  (91) 
531.0

>  <AlogP>  (91) 
3.99

>  <Smiles>  (91) 
COc1cc(N2CCN(CCO)CC2)ccc1Nc1ncc(Cl)c(Nc2ccccc2P(C)(C)=O)n1

>  <Standard Type>  (91) 
IC50

>  <Standard Relation>  (91) 
'='

>  <Standard Units>  (91) 
nM

>  <Standard Value>  (91) 
0.18

>  <Assay ChEMBL ID>  (91) 
CHEMBL3824709

>  <Assay Description>  (91) 
Inhibition of human ALK using poly[Glu:Tyr] (4:1) as substrate and [gamma-33P]ATP measured after 1 hr

>  <BAO Format ID>  (91) 
BAO_0000357

>  <BAO Label>  (91) 
single protein format

>  <Assay Organism>  (91) 
Homo sapiens

>  <Target ChEMBL ID>  (91) 
CHEMBL4247

>  <Target Name>  (91) 
ALK tyrosine kinase receptor

>  <Target Organism>  (91) 
Homo sapiens

>  <Target Type>  (91) 
SINGLE PROTEIN

>  <Document ChEMBL ID>  (91) 
CHEMBL3822358

>  <Source Description>  (91) 
Scientific Literature

>  <Document Journal>  (91) 
J Med Chem

>  <Document Year>  (91) 
2016.0

>  <Active>  (91) 
1.0

>  <bits>  (91) 
<rdkit.DataStructs.cDataStructs.ExplicitBitVect object at 0x000002422F1E0A50>

>  <Group>  (91) 
G2

$$$$

     RDKit          2D

 38 41  0  0  0  0  0  0  0  0999 V2000
    3.0000    0.0000    0.0000 C   0  0  0  0  0  0  0  0  0  0  0  0
    1.5000    0.0000    0.0000 C   0  0  0  0  0  0  0  0  0  0  0  0
    0.7500   -1.2990    0.0000 C   0  0  0  0  0  0  0  0  0  0  0  0
   -0.7500   -1.2990    0.0000 C   0  0  0  0  0  0  0  0  0  0  0  0
   -1.5000   -2.5981    0.0000 N   0  0  0  0  0  0  0  0  0  0  0  0
   -0.7500   -3.8971    0.0000 C   0  0  0  0  0  0  0  0  0  0  0  0
   -1.5000   -5.1962    0.0000 N   0  0  0  0  0  0  0  0  0  0  0  0
   -0.7500   -6.4952    0.0000 C   0  0  0  0  0  0  0  0  0  0  0  0
    0.7500   -6.4952    0.0000 C   0  0  0  0  0  0  0  0  0  0  0  0
    1.5000   -7.7942    0.0000 Cl  0  0  0  0  0  0  0  0  0  0  0  0
    1.5000   -5.1962    0.0000 C   0  0  0  0  0  0  0  0  0  0  0  0
    3.0000   -5.1962    0.0000 N   0  0  0  0  0  0  0  0  0  0  0  0
    3.7500   -3.8971    0.0000 C   0  0  0  0  0  0  0  0  0  0  0  0
    3.1399   -2.5268    0.0000 C   0  0  0  0  0  0  0  0  0  0  0  0
    4.2546   -1.5231    0.0000 N   0  0  0  0  0  0  0  0  0  0  0  0
    4.0978   -0.0313    0.0000 C   0  0  0  0  0  0  0  0  0  0  0  0
    5.5537   -2.2731    0.0000 N   0  0  0  0  0  0  0  0  0  0  0  0
    5.2418   -3.7403    0.0000 C   0  0  0  0  0  0  0  0  0  0  0  0
    6.2455   -4.8550    0.0000 S   0  0  0  0  0  0  0  0  0  0  0  0
    5.1308   -5.8587    0.0000 O   0  0  0  0  0  0  0  0  0  0  0  0
    7.3602   -3.8513    0.0000 O   0  0  0  0  0  0  0  0  0  0  0  0
    7.2492   -5.9698    0.0000 C   0  0  0  0  0  0  0  0  0  0  0  0
    6.7856   -7.3963    0.0000 C   0  0  0  0  0  0  0  0  0  0  0  0
    8.7164   -5.6579    0.0000 C   0  0  0  0  0  0  0  0  0  0  0  0
    0.7500   -3.8971    0.0000 N   0  0  0  0  0  0  0  0  0  0  0  0
   -1.5000    0.0000    0.0000 C   0  0  0  0  0  0  0  0  0  0  0  0
   -3.0000    0.0000    0.0000 C   0  0  0  0  0  0  0  0  0  0  0  0
   -3.7500    1.2990    0.0000 C   0  0  0  0  0  0  0  0  0  0  0  0
   -3.7500   -1.2990    0.0000 C   0  0  0  0  0  0  0  0  0  0  0  0
   -0.7500    1.2990    0.0000 C   0  0  0  0  0  0  0  0  0  0  0  0
    0.7500    1.2990    0.0000 C   0  0  0  0  0  0  0  0  0  0  0  0
    1.5000    2.5981    0.0000 C   0  0  0  0  0  0  0  0  0  0  0  0
    3.0000    2.5981    0.0000 C   0  0  0  0  0  0  0  0  0  0  0  0
    3.7500    3.8971    0.0000 C   0  0  0  0  0  0  0  0  0  0  0  0
    3.0000    5.1962    0.0000 N   0  0  0  0  0  0  0  0  0  0  0  0
    3.7500    6.4952    0.0000 C   0  0  0  0  0  0  0  0  0  0  0  0
    1.5000    5.1962    0.0000 C   0  0  0  0  0  0  0  0  0  0  0  0
    0.7500    3.8971    0.0000 C   0  0  0  0  0  0  0  0  0  0  0  0
  1  2  1  0
  2  3  2  0
  3  4  1  0
  4  5  1  0
  5  6  1  0
  6  7  2  0
  7  8  1  0
  8  9  2  0
  9 10  1  0
  9 11  1  0
 11 12  1  0
 12 13  1  0
 13 14  2  0
 14 15  1  0
 15 16  1  0
 15 17  1  0
 17 18  2  0
 18 19  1  0
 19 20  2  0
 19 21  2  0
 19 22  1  0
 22 23  1  0
 22 24  1  0
 11 25  2  0
  4 26  2  0
 26 27  1  0
 27 28  1  0
 27 29  1  0
 26 30  1  0
 30 31  2  0
 31 32  1  0
 32 33  1  0
 33 34  1  0
 34 35  1  0
 35 36  1  0
 35 37  1  0
 37 38  1  0
 31  2  1  0
 38 32  1  0
 25  6  1  0
 18 13  1  0
M  END
>  <Compound_ID>  (92) 
CHEMBL3604640

>  <Molecule Name>  (92) 
nan

>  <Molecular Weight>  (92) 
560.17

>  <AlogP>  (92) 
5.77

>  <Smiles>  (92) 
Cc1cc(Nc2ncc(Cl)c(Nc3cn(C)nc3S(=O)(=O)C(C)C)n2)c(C(C)C)cc1C1CCN(C)CC1

>  <Standard Type>  (92) 
IC50

>  <Standard Relation>  (92) 
'='

>  <Standard Units>  (92) 
nM

>  <Standard Value>  (92) 
28.0

>  <Assay ChEMBL ID>  (92) 
CHEMBL3607641

>  <Assay Description>  (92) 
Inhibition of ALK L1196M mutant (unknown origin) using TK substrate-biotin incubated for 30 mins by HTRF assay

>  <BAO Format ID>  (92) 
BAO_0000357

>  <BAO Label>  (92) 
single protein format

>  <Assay Organism>  (92) 
Homo sapiens

>  <Target ChEMBL ID>  (92) 
CHEMBL4247

>  <Target Name>  (92) 
ALK tyrosine kinase receptor

>  <Target Organism>  (92) 
Homo sapiens

>  <Target Type>  (92) 
SINGLE PROTEIN

>  <Document ChEMBL ID>  (92) 
CHEMBL3603807

>  <Source Description>  (92) 
Scientific Literature

>  <Document Journal>  (92) 
Bioorg Med Chem Lett

>  <Document Year>  (92) 
2015.0

>  <Active>  (92) 
1.0

>  <bits>  (92) 
<rdkit.DataStructs.cDataStructs.ExplicitBitVect object at 0x000002422F1E09E0>

>  <Group>  (92) 
G2

$$$$

     RDKit          2D

 41 44  0  0  0  0  0  0  0  0999 V2000
    3.0000    0.0000    0.0000 C   0  0  0  0  0  0  0  0  0  0  0  0
    1.5000    0.0000    0.0000 C   0  0  0  0  0  0  0  0  0  0  0  0
    0.7500   -1.2990    0.0000 C   0  0  0  0  0  0  0  0  0  0  0  0
   -0.7500   -1.2990    0.0000 C   0  0  0  0  0  0  0  0  0  0  0  0
   -1.5000   -2.5981    0.0000 N   0  0  0  0  0  0  0  0  0  0  0  0
   -3.0000   -2.5981    0.0000 C   0  0  0  0  0  0  0  0  0  0  0  0
   -3.7500   -1.2990    0.0000 N   0  0  0  0  0  0  0  0  0  0  0  0
   -5.2500   -1.2990    0.0000 C   0  0  0  0  0  0  0  0  0  0  0  0
   -6.0000   -2.5981    0.0000 C   0  0  0  0  0  0  0  0  0  0  0  0
   -7.5000   -2.5981    0.0000 Cl  0  0  0  0  0  0  0  0  0  0  0  0
   -5.2500   -3.8971    0.0000 C   0  0  0  0  0  0  0  0  0  0  0  0
   -6.0000   -5.1962    0.0000 N   0  0  0  0  0  0  0  0  0  0  0  0
   -5.2500   -6.4952    0.0000 C   0  0  0  0  0  0  0  0  0  0  0  0
   -3.7582   -6.6520    0.0000 C   0  0  0  0  0  0  0  0  0  0  0  0
   -3.4463   -8.1192    0.0000 N   0  0  0  0  0  0  0  0  0  0  0  0
   -2.0760   -8.7293    0.0000 C   0  0  0  0  0  0  0  0  0  0  0  0
   -4.7454   -8.8692    0.0000 N   0  0  0  0  0  0  0  0  0  0  0  0
   -5.8601   -7.8655    0.0000 C   0  0  0  0  0  0  0  0  0  0  0  0
   -7.3273   -8.1774    0.0000 S   0  0  0  0  0  0  0  0  0  0  0  0
   -7.6392   -6.7102    0.0000 O   0  0  0  0  0  0  0  0  0  0  0  0
   -7.0155   -9.6446    0.0000 O   0  0  0  0  0  0  0  0  0  0  0  0
   -8.7945   -8.4892    0.0000 C   0  0  0  0  0  0  0  0  0  0  0  0
   -9.7982   -7.3745    0.0000 C   0  0  0  0  0  0  0  0  0  0  0  0
   -9.2581   -9.9158    0.0000 C   0  0  0  0  0  0  0  0  0  0  0  0
   -3.7500   -3.8971    0.0000 N   0  0  0  0  0  0  0  0  0  0  0  0
   -1.5000    0.0000    0.0000 C   0  0  0  0  0  0  0  0  0  0  0  0
   -3.0000    0.0000    0.0000 O   0  0  0  0  0  0  0  0  0  0  0  0
   -3.7500    1.2990    0.0000 C   0  0  0  0  0  0  0  0  0  0  0  0
   -5.2500    1.2990    0.0000 C   0  0  0  0  0  0  0  0  0  0  0  0
   -6.0000    2.5981    0.0000 F   0  0  0  0  0  0  0  0  0  0  0  0
   -3.0000    2.5981    0.0000 C   0  0  0  0  0  0  0  0  0  0  0  0
   -3.7500    3.8971    0.0000 F   0  0  0  0  0  0  0  0  0  0  0  0
   -0.7500    1.2990    0.0000 C   0  0  0  0  0  0  0  0  0  0  0  0
    0.7500    1.2990    0.0000 C   0  0  0  0  0  0  0  0  0  0  0  0
    1.5000    2.5981    0.0000 C   0  0  0  0  0  0  0  0  0  0  0  0
    3.0000    2.5981    0.0000 C   0  0  0  0  0  0  0  0  0  0  0  0
    3.7500    3.8971    0.0000 C   0  0  0  0  0  0  0  0  0  0  0  0
    3.0000    5.1962    0.0000 N   0  0  0  0  0  0  0  0  0  0  0  0
    3.7500    6.4952    0.0000 C   0  0  0  0  0  0  0  0  0  0  0  0
    1.5000    5.1962    0.0000 C   0  0  0  0  0  0  0  0  0  0  0  0
    0.7500    3.8971    0.0000 C   0  0  0  0  0  0  0  0  0  0  0  0
  1  2  1  0
  2  3  2  0
  3  4  1  0
  4  5  1  0
  5  6  1  0
  6  7  2  0
  7  8  1  0
  8  9  2  0
  9 10  1  0
  9 11  1  0
 11 12  1  0
 12 13  1  0
 13 14  2  0
 14 15  1  0
 15 16  1  0
 15 17  1  0
 17 18  2  0
 18 19  1  0
 19 20  2  0
 19 21  2  0
 19 22  1  0
 22 23  1  0
 22 24  1  0
 11 25  2  0
  4 26  2  0
 26 27  1  0
 27 28  1  0
 28 29  1  0
 29 30  1  0
 28 31  1  0
 31 32  1  0
 26 33  1  0
 33 34  2  0
 34 35  1  0
 35 36  1  0
 36 37  1  0
 37 38  1  0
 38 39  1  0
 38 40  1  0
 40 41  1  0
 34  2  1  0
 41 35  1  0
 25  6  1  0
 18 13  1  0
M  END
>  <Compound_ID>  (93) 
CHEMBL3604637

>  <Molecule Name>  (93) 
nan

>  <Molecular Weight>  (93) 
612.15

>  <AlogP>  (93) 
5.34

>  <Smiles>  (93) 
Cc1cc(Nc2ncc(Cl)c(Nc3cn(C)nc3S(=O)(=O)C(C)C)n2)c(OC(CF)CF)cc1C1CCN(C)CC1

>  <Standard Type>  (93) 
IC50

>  <Standard Relation>  (93) 
'='

>  <Standard Units>  (93) 
nM

>  <Standard Value>  (93) 
23.0

>  <Assay ChEMBL ID>  (93) 
CHEMBL3607641

>  <Assay Description>  (93) 
Inhibition of ALK L1196M mutant (unknown origin) using TK substrate-biotin incubated for 30 mins by HTRF assay

>  <BAO Format ID>  (93) 
BAO_0000357

>  <BAO Label>  (93) 
single protein format

>  <Assay Organism>  (93) 
Homo sapiens

>  <Target ChEMBL ID>  (93) 
CHEMBL4247

>  <Target Name>  (93) 
ALK tyrosine kinase receptor

>  <Target Organism>  (93) 
Homo sapiens

>  <Target Type>  (93) 
SINGLE PROTEIN

>  <Document ChEMBL ID>  (93) 
CHEMBL3603807

>  <Source Description>  (93) 
Scientific Literature

>  <Document Journal>  (93) 
Bioorg Med Chem Lett

>  <Document Year>  (93) 
2015.0

>  <Active>  (93) 
1.0

>  <bits>  (93) 
<rdkit.DataStructs.cDataStructs.ExplicitBitVect object at 0x000002422F1E0890>

>  <Group>  (93) 
G2

$$$$

     RDKit          2D

 30 34  0  0  0  0  0  0  0  0999 V2000
   -6.8407    7.0769    0.0000 N   0  0  0  0  0  0  0  0  0  0  0  0
   -5.4704    6.4668    0.0000 C   0  0  0  0  0  0  0  0  0  0  0  0
   -4.1000    5.8567    0.0000 C   0  0  0  0  0  0  0  0  0  0  0  0
   -2.8865    6.7384    0.0000 C   0  0  0  0  0  0  0  0  0  0  0  0
   -1.5162    6.1283    0.0000 C   0  0  0  0  0  0  0  0  0  0  0  0
   -1.3594    4.6365    0.0000 C   0  0  0  0  0  0  0  0  0  0  0  0
   -0.1459    3.7548    0.0000 C   0  0  0  0  0  0  0  0  0  0  0  0
   -0.6094    2.3282    0.0000 C   0  0  0  0  0  0  0  0  0  0  0  0
   -2.1094    2.3282    0.0000 N   0  0  0  0  0  0  0  0  0  0  0  0
   -2.5729    3.7548    0.0000 C   0  0  0  0  0  0  0  0  0  0  0  0
   -3.9432    4.3649    0.0000 C   0  0  0  0  0  0  0  0  0  0  0  0
    0.3943    1.2135    0.0000 C   0  0  0  0  0  0  0  0  0  0  0  0
    1.2760    0.0000    0.0000 C   0  0  0  0  0  0  0  0  0  0  0  0
    0.3943   -1.2135    0.0000 C   0  0  0  0  0  0  0  0  0  0  0  0
   -1.0323   -0.7500    0.0000 C   0  0  0  0  0  0  0  0  0  0  0  0
   -1.0323    0.7500    0.0000 C   0  0  0  0  0  0  0  0  0  0  0  0
    1.8615    1.5254    0.0000 C   0  0  0  0  0  0  0  0  0  0  0  0
    2.8652    0.4107    0.0000 C   0  0  0  0  0  0  0  0  0  0  0  0
    4.3324    0.7225    0.0000 C   0  0  0  0  0  0  0  0  0  0  0  0
    5.3361   -0.3922    0.0000 O   0  0  0  0  0  0  0  0  0  0  0  0
    4.8726   -1.8188    0.0000 C   0  0  0  0  0  0  0  0  0  0  0  0
    5.8763   -2.9335    0.0000 C   0  0  0  0  0  0  0  0  0  0  0  0
    7.3435   -2.6216    0.0000 O   0  0  0  0  0  0  0  0  0  0  0  0
    5.4128   -4.3601    0.0000 C   0  0  0  0  0  0  0  0  0  0  0  0
    6.4165   -5.4748    0.0000 O   0  0  0  0  0  0  0  0  0  0  0  0
    4.7960    2.1491    0.0000 C   0  0  0  0  0  0  0  0  0  0  0  0
    3.7923    3.2638    0.0000 C   0  0  0  0  0  0  0  0  0  0  0  0
    2.3250    2.9520    0.0000 C   0  0  0  0  0  0  0  0  0  0  0  0
    1.3213    4.0667    0.0000 C   0  0  0  0  0  0  0  0  0  0  0  0
    1.7849    5.4933    0.0000 O   0  0  0  0  0  0  0  0  0  0  0  0
  1  2  3  0
  2  3  1  0
  3  4  2  0
  4  5  1  0
  5  6  2  0
  6  7  1  0
  7  8  2  0
  8  9  1  0
  9 10  1  0
 10 11  2  0
  8 12  1  0
 12 13  1  0
 13 14  1  0
 14 15  1  0
 15 16  1  0
 12 17  1  0
 17 18  2  0
 18 19  1  0
 19 20  1  0
 20 21  1  0
 21 22  1  0
 22 23  1  6
 22 24  1  0
 24 25  1  0
 19 26  2  0
 26 27  1  0
 27 28  2  0
 28 29  1  0
 29 30  2  0
 11  3  1  0
 16 12  1  0
 28 17  1  0
 10  6  1  0
 29  7  1  0
M  END
>  <Compound_ID>  (94) 
CHEMBL4111362

>  <Molecule Name>  (94) 
nan

>  <Molecular Weight>  (94) 
402.45

>  <AlogP>  (94) 
3.18

>  <Smiles>  (94) 
N#Cc1ccc2c3c([nH]c2c1)C1(CCCC1)c1cc(OC[C@H](O)CO)ccc1C3=O

>  <Standard Type>  (94) 
IC50

>  <Standard Relation>  (94) 
'='

>  <Standard Units>  (94) 
nM

>  <Standard Value>  (94) 
6.137

>  <Assay ChEMBL ID>  (94) 
CHEMBL3887074

>  <Assay Description>  (94) 
Inhibition Assay: ALK-inhibiting activity was measured by following an activity of inhibiting phosphorylation by biotinylated peptide (EGPWLEEEEEAYGWMDF). For the detection of phosphorylation of the biotinylated peptide, time-resolved fluorescence measurement was performed using an anti-phosphorylated tyrosine antibody labeled with europium cryptate and streptavidin conjugated to XL665, i.e., an allophycocyanin derivative.

>  <BAO Format ID>  (94) 
BAO_0000357

>  <BAO Label>  (94) 
single protein format

>  <Assay Organism>  (94) 
Homo sapiens

>  <Target ChEMBL ID>  (94) 
CHEMBL4247

>  <Target Name>  (94) 
ALK tyrosine kinase receptor

>  <Target Organism>  (94) 
Homo sapiens

>  <Target Type>  (94) 
SINGLE PROTEIN

>  <Document ChEMBL ID>  (94) 
CHEMBL3886150

>  <Source Description>  (94) 
BindingDB Database

>  <Document Journal>  (94) 
nan

>  <Document Year>  (94) 
2015.0

>  <Active>  (94) 
1.0

>  <bits>  (94) 
<rdkit.DataStructs.cDataStructs.ExplicitBitVect object at 0x000002422F1E2110>

>  <Group>  (94) 
G2

$$$$

     RDKit          2D

 35 40  0  0  0  0  0  0  0  0999 V2000
   -5.6381   -7.5395    0.0000 C   0  0  0  0  0  0  0  0  0  0  0  0
   -4.2677   -6.9294    0.0000 C   0  0  0  0  0  0  0  0  0  0  0  0
   -4.1110   -5.4376    0.0000 C   0  0  0  0  0  0  0  0  0  0  0  0
   -2.7406   -4.8275    0.0000 C   0  0  0  0  0  0  0  0  0  0  0  0
   -1.5271   -5.7092    0.0000 C   0  0  0  0  0  0  0  0  0  0  0  0
   -1.6839   -7.2010    0.0000 C   0  0  0  0  0  0  0  0  0  0  0  0
   -3.0542   -7.8111    0.0000 C   0  0  0  0  0  0  0  0  0  0  0  0
   -3.2110   -9.3029    0.0000 N   0  0  0  0  0  0  0  0  0  0  0  0
   -4.5813   -9.9130    0.0000 C   0  0  0  0  0  0  0  0  0  0  0  0
   -4.7381  -11.4047    0.0000 C   0  0  0  0  0  0  0  0  0  0  0  0
   -3.5246  -12.2864    0.0000 C   0  0  0  0  0  0  0  0  0  0  0  0
   -3.6814  -13.7782    0.0000 N   0  0  0  0  0  0  0  0  0  0  0  0
   -5.0517  -14.3883    0.0000 C   0  0  0  0  0  0  0  0  0  0  0  0
   -5.2085  -15.8801    0.0000 C   0  0  0  0  0  0  0  0  0  0  0  0
   -3.9950  -16.7618    0.0000 O   0  0  0  0  0  0  0  0  0  0  0  0
   -2.6247  -16.1517    0.0000 C   0  0  0  0  0  0  0  0  0  0  0  0
   -2.4679  -14.6599    0.0000 C   0  0  0  0  0  0  0  0  0  0  0  0
   -2.1543  -11.6763    0.0000 C   0  0  0  0  0  0  0  0  0  0  0  0
   -1.9975  -10.1845    0.0000 C   0  0  0  0  0  0  0  0  0  0  0  0
   -0.1568   -5.0991    0.0000 C   0  0  0  0  0  0  0  0  0  0  0  0
    1.3396   -4.9944    0.0000 C   0  0  0  0  0  0  0  0  0  0  0  0
    0.2061   -6.5545    0.0000 C   0  0  0  0  0  0  0  0  0  0  0  0
   -0.0000   -3.6073    0.0000 C   0  0  0  0  0  0  0  0  0  0  0  0
    1.2135   -2.7256    0.0000 N   0  0  0  0  0  0  0  0  0  0  0  0
    0.7500   -1.2990    0.0000 C   0  0  0  0  0  0  0  0  0  0  0  0
    1.5000    0.0000    0.0000 C   0  0  0  0  0  0  0  0  0  0  0  0
    0.7500    1.2990    0.0000 C   0  0  0  0  0  0  0  0  0  0  0  0
    1.5000    2.5981    0.0000 C   0  0  0  0  0  0  0  0  0  0  0  0
    2.2500    3.8971    0.0000 N   0  0  0  0  0  0  0  0  0  0  0  0
   -0.7500    1.2990    0.0000 C   0  0  0  0  0  0  0  0  0  0  0  0
   -1.5000    0.0000    0.0000 C   0  0  0  0  0  0  0  0  0  0  0  0
   -0.7500   -1.2990    0.0000 C   0  0  0  0  0  0  0  0  0  0  0  0
   -1.2135   -2.7256    0.0000 C   0  0  0  0  0  0  0  0  0  0  0  0
   -2.5838   -3.3357    0.0000 C   0  0  0  0  0  0  0  0  0  0  0  0
   -3.7974   -2.4540    0.0000 O   0  0  0  0  0  0  0  0  0  0  0  0
  1  2  1  0
  2  3  2  0
  3  4  1  0
  4  5  2  0
  5  6  1  0
  6  7  2  0
  7  8  1  0
  8  9  1  0
  9 10  1  0
 10 11  1  0
 11 12  1  0
 12 13  1  0
 13 14  1  0
 14 15  1  0
 15 16  1  0
 16 17  1  0
 11 18  1  0
 18 19  1  0
  5 20  1  0
 20 21  1  0
 20 22  1  0
 20 23  1  0
 23 24  1  0
 24 25  1  0
 25 26  2  0
 26 27  1  0
 27 28  1  0
 28 29  3  0
 27 30  2  0
 30 31  1  0
 31 32  2  0
 32 33  1  0
 33 34  1  0
 34 35  2  0
  7  2  1  0
 19  8  1  0
 33 23  2  0
 34  4  1  0
 17 12  1  0
 32 25  1  0
M  END
>  <Compound_ID>  (95) 
CHEMBL1940181

>  <Molecule Name>  (95) 
nan

>  <Molecular Weight>  (95) 
468.6

>  <AlogP>  (95) 
4.52

>  <Smiles>  (95) 
Cc1cc2c(cc1N1CCC(N3CCOCC3)CC1)C(C)(C)c1[nH]c3cc(C#N)ccc3c1C2=O

>  <Standard Type>  (95) 
IC50

>  <Standard Relation>  (95) 
'='

>  <Standard Units>  (95) 
nM

>  <Standard Value>  (95) 
2.611

>  <Assay ChEMBL ID>  (95) 
CHEMBL3887074

>  <Assay Description>  (95) 
Inhibition Assay: ALK-inhibiting activity was measured by following an activity of inhibiting phosphorylation by biotinylated peptide (EGPWLEEEEEAYGWMDF). For the detection of phosphorylation of the biotinylated peptide, time-resolved fluorescence measurement was performed using an anti-phosphorylated tyrosine antibody labeled with europium cryptate and streptavidin conjugated to XL665, i.e., an allophycocyanin derivative.

>  <BAO Format ID>  (95) 
BAO_0000357

>  <BAO Label>  (95) 
single protein format

>  <Assay Organism>  (95) 
Homo sapiens

>  <Target ChEMBL ID>  (95) 
CHEMBL4247

>  <Target Name>  (95) 
ALK tyrosine kinase receptor

>  <Target Organism>  (95) 
Homo sapiens

>  <Target Type>  (95) 
SINGLE PROTEIN

>  <Document ChEMBL ID>  (95) 
CHEMBL3886150

>  <Source Description>  (95) 
BindingDB Database

>  <Document Journal>  (95) 
nan

>  <Document Year>  (95) 
2015.0

>  <Active>  (95) 
1.0

>  <bits>  (95) 
<rdkit.DataStructs.cDataStructs.ExplicitBitVect object at 0x000002422F1E30D0>

>  <Group>  (95) 
G2

$$$$

     RDKit          2D

 28 31  0  0  0  0  0  0  0  0999 V2000
    6.0000    1.5000    0.0000 C   0  0  0  0  0  0  0  0  0  0  0  0
    6.0000    0.0000    0.0000 C   0  0  0  0  0  0  0  0  0  0  0  0
    6.0000   -1.5000    0.0000 C   0  0  0  0  0  0  0  0  0  0  0  0
    7.5000    0.0000    0.0000 O   0  0  0  0  0  0  0  0  0  0  0  0
    4.5000    0.0000    0.0000 C   0  0  0  0  0  0  0  0  0  0  0  0
    3.0000    0.0000    0.0000 C   0  0  0  0  0  0  0  0  0  0  0  0
    1.5000    0.0000    0.0000 C   0  0  0  0  0  0  0  0  0  0  0  0
    0.7500   -1.2990    0.0000 C   0  0  0  0  0  0  0  0  0  0  0  0
   -0.7500   -1.2990    0.0000 C   0  0  0  0  0  0  0  0  0  0  0  0
   -1.5000    0.0000    0.0000 C   0  0  0  0  0  0  0  0  0  0  0  0
   -0.7500    1.2990    0.0000 C   0  0  0  0  0  0  0  0  0  0  0  0
    0.7500    1.2990    0.0000 C   0  0  0  0  0  0  0  0  0  0  0  0
   -1.5000    2.5981    0.0000 C   0  0  0  0  0  0  0  0  0  0  0  0
   -0.7500    3.8971    0.0000 O   0  0  0  0  0  0  0  0  0  0  0  0
   -3.0000    2.5981    0.0000 C   0  0  0  0  0  0  0  0  0  0  0  0
   -3.7500    1.2990    0.0000 C   0  0  0  0  0  0  0  0  0  0  0  0
   -5.2172    1.6109    0.0000 N   0  0  0  0  0  0  0  0  0  0  0  0
   -5.3740    3.1027    0.0000 C   0  0  0  0  0  0  0  0  0  0  0  0
   -6.5875    3.9844    0.0000 C   0  0  0  0  0  0  0  0  0  0  0  0
   -6.4307    5.4761    0.0000 C   0  0  0  0  0  0  0  0  0  0  0  0
   -7.6443    6.3578    0.0000 C   0  0  0  0  0  0  0  0  0  0  0  0
   -8.8578    7.2395    0.0000 N   0  0  0  0  0  0  0  0  0  0  0  0
   -5.0604    6.0863    0.0000 C   0  0  0  0  0  0  0  0  0  0  0  0
   -3.8469    5.2046    0.0000 C   0  0  0  0  0  0  0  0  0  0  0  0
   -4.0037    3.7128    0.0000 C   0  0  0  0  0  0  0  0  0  0  0  0
   -3.0000    0.0000    0.0000 C   0  0  0  0  0  0  0  0  0  0  0  0
   -2.7395   -1.4772    0.0000 C   0  0  0  0  0  0  0  0  0  0  0  0
   -4.4095   -0.5130    0.0000 C   0  0  0  0  0  0  0  0  0  0  0  0
  1  2  1  0
  2  3  1  0
  2  4  1  0
  2  5  1  0
  5  6  3  0
  6  7  1  0
  7  8  2  0
  8  9  1  0
  9 10  2  0
 10 11  1  0
 11 12  2  0
 11 13  1  0
 13 14  2  0
 13 15  1  0
 15 16  2  0
 16 17  1  0
 17 18  1  0
 18 19  2  0
 19 20  1  0
 20 21  1  0
 21 22  3  0
 20 23  2  0
 23 24  1  0
 24 25  2  0
 16 26  1  0
 26 27  1  0
 26 28  1  0
 12  7  1  0
 25 15  1  0
 26 10  1  0
 25 18  1  0
M  END
>  <Compound_ID>  (96) 
CHEMBL3967479

>  <Molecule Name>  (96) 
nan

>  <Molecular Weight>  (96) 
368.44

>  <AlogP>  (96) 
4.03

>  <Smiles>  (96) 
CC(C)(O)C#Cc1ccc2c(c1)C(=O)c1c([nH]c3cc(C#N)ccc13)C2(C)C

>  <Standard Type>  (96) 
IC50

>  <Standard Relation>  (96) 
'='

>  <Standard Units>  (96) 
nM

>  <Standard Value>  (96) 
1.171

>  <Assay ChEMBL ID>  (96) 
CHEMBL3887074

>  <Assay Description>  (96) 
Inhibition Assay: ALK-inhibiting activity was measured by following an activity of inhibiting phosphorylation by biotinylated peptide (EGPWLEEEEEAYGWMDF). For the detection of phosphorylation of the biotinylated peptide, time-resolved fluorescence measurement was performed using an anti-phosphorylated tyrosine antibody labeled with europium cryptate and streptavidin conjugated to XL665, i.e., an allophycocyanin derivative.

>  <BAO Format ID>  (96) 
BAO_0000357

>  <BAO Label>  (96) 
single protein format

>  <Assay Organism>  (96) 
Homo sapiens

>  <Target ChEMBL ID>  (96) 
CHEMBL4247

>  <Target Name>  (96) 
ALK tyrosine kinase receptor

>  <Target Organism>  (96) 
Homo sapiens

>  <Target Type>  (96) 
SINGLE PROTEIN

>  <Document ChEMBL ID>  (96) 
CHEMBL3886150

>  <Source Description>  (96) 
BindingDB Database

>  <Document Journal>  (96) 
nan

>  <Document Year>  (96) 
2015.0

>  <Active>  (96) 
1.0

>  <bits>  (96) 
<rdkit.DataStructs.cDataStructs.ExplicitBitVect object at 0x000002422F1E2FF0>

>  <Group>  (96) 
G2

$$$$

     RDKit          2D

 31 36  0  0  0  0  0  0  0  0999 V2000
    2.6491   -3.5623    0.0000 C   0  0  0  0  0  0  0  0  0  0  0  0
    1.5000   -2.5981    0.0000 C   0  0  0  0  0  0  0  0  0  0  0  0
    2.6491   -1.6339    0.0000 C   0  0  0  0  0  0  0  0  0  0  0  0
    0.7500   -1.2990    0.0000 C   0  0  0  0  0  0  0  0  0  0  0  0
    1.5000    0.0000    0.0000 C   0  0  0  0  0  0  0  0  0  0  0  0
    0.7500    1.2990    0.0000 C   0  0  0  0  0  0  0  0  0  0  0  0
   -0.7500    1.2990    0.0000 C   0  0  0  0  0  0  0  0  0  0  0  0
   -1.5000    2.5981    0.0000 C   0  0  0  0  0  0  0  0  0  0  0  0
   -0.7500    3.8971    0.0000 C   0  0  0  0  0  0  0  0  0  0  0  0
   -1.5000    5.1962    0.0000 C   0  0  0  0  0  0  0  0  0  0  0  0
   -3.0000    5.1962    0.0000 N   0  0  0  0  0  0  0  0  0  0  0  0
   -3.7500    6.4952    0.0000 C   0  0  0  0  0  0  0  0  0  0  0  0
   -5.0490    7.2452    0.0000 C   0  0  0  0  0  0  0  0  0  0  0  0
   -3.7500    7.9952    0.0000 C   0  0  0  0  0  0  0  0  0  0  0  0
   -3.7500    3.8971    0.0000 C   0  0  0  0  0  0  0  0  0  0  0  0
   -3.0000    2.5981    0.0000 C   0  0  0  0  0  0  0  0  0  0  0  0
   -1.5000    0.0000    0.0000 C   0  0  0  0  0  0  0  0  0  0  0  0
   -0.7500   -1.2990    0.0000 C   0  0  0  0  0  0  0  0  0  0  0  0
   -1.5000   -2.5981    0.0000 C   0  0  0  0  0  0  0  0  0  0  0  0
   -3.0000   -2.5981    0.0000 O   0  0  0  0  0  0  0  0  0  0  0  0
   -0.7500   -3.8971    0.0000 C   0  0  0  0  0  0  0  0  0  0  0  0
    0.7500   -3.8971    0.0000 C   0  0  0  0  0  0  0  0  0  0  0  0
    1.2135   -5.3237    0.0000 N   0  0  0  0  0  0  0  0  0  0  0  0
    0.0000   -6.2054    0.0000 C   0  0  0  0  0  0  0  0  0  0  0  0
   -0.1568   -7.6972    0.0000 C   0  0  0  0  0  0  0  0  0  0  0  0
   -1.5271   -8.3073    0.0000 C   0  0  0  0  0  0  0  0  0  0  0  0
   -1.6839   -9.7990    0.0000 C   0  0  0  0  0  0  0  0  0  0  0  0
   -1.8407  -11.2908    0.0000 N   0  0  0  0  0  0  0  0  0  0  0  0
   -2.7406   -7.4256    0.0000 C   0  0  0  0  0  0  0  0  0  0  0  0
   -2.5838   -5.9338    0.0000 C   0  0  0  0  0  0  0  0  0  0  0  0
   -1.2135   -5.3237    0.0000 C   0  0  0  0  0  0  0  0  0  0  0  0
  1  2  1  0
  2  3  1  0
  2  4  1  0
  4  5  2  0
  5  6  1  0
  6  7  2  0
  7  8  1  0
  8  9  2  0
  9 10  1  0
 10 11  1  0
 11 12  1  0
 12 13  1  0
 13 14  1  0
 11 15  1  0
 15 16  1  0
  7 17  1  0
 17 18  2  0
 18 19  1  0
 19 20  2  0
 19 21  1  0
 21 22  2  0
 22 23  1  0
 23 24  1  0
 24 25  2  0
 25 26  1  0
 26 27  1  0
 27 28  3  0
 26 29  2  0
 29 30  1  0
 30 31  2  0
 22  2  1  0
 31 24  1  0
 18  4  1  0
 31 21  1  0
 16  8  1  0
 14 12  1  0
M  END
>  <Compound_ID>  (97) 
CHEMBL3894804

>  <Molecule Name>  (97) 
nan

>  <Molecular Weight>  (97) 
407.52

>  <AlogP>  (97) 
5.16

>  <Smiles>  (97) 
CC1(C)c2ccc(C3=CCN(C4CC4)CC3)cc2C(=O)c2c1[nH]c1cc(C#N)ccc21

>  <Standard Type>  (97) 
IC50

>  <Standard Relation>  (97) 
'='

>  <Standard Units>  (97) 
nM

>  <Standard Value>  (97) 
3.96

>  <Assay ChEMBL ID>  (97) 
CHEMBL3887074

>  <Assay Description>  (97) 
Inhibition Assay: ALK-inhibiting activity was measured by following an activity of inhibiting phosphorylation by biotinylated peptide (EGPWLEEEEEAYGWMDF). For the detection of phosphorylation of the biotinylated peptide, time-resolved fluorescence measurement was performed using an anti-phosphorylated tyrosine antibody labeled with europium cryptate and streptavidin conjugated to XL665, i.e., an allophycocyanin derivative.

>  <BAO Format ID>  (97) 
BAO_0000357

>  <BAO Label>  (97) 
single protein format

>  <Assay Organism>  (97) 
Homo sapiens

>  <Target ChEMBL ID>  (97) 
CHEMBL4247

>  <Target Name>  (97) 
ALK tyrosine kinase receptor

>  <Target Organism>  (97) 
Homo sapiens

>  <Target Type>  (97) 
SINGLE PROTEIN

>  <Document ChEMBL ID>  (97) 
CHEMBL3886150

>  <Source Description>  (97) 
BindingDB Database

>  <Document Journal>  (97) 
nan

>  <Document Year>  (97) 
2015.0

>  <Active>  (97) 
1.0

>  <bits>  (97) 
<rdkit.DataStructs.cDataStructs.ExplicitBitVect object at 0x000002422F1E2A40>

>  <Group>  (97) 
G2

$$$$

     RDKit          2D

 41 46  0  0  0  0  0  0  0  0999 V2000
  -12.9381   -7.9010    0.0000 C   0  0  0  0  0  0  0  0  0  0  0  0
  -11.5115   -7.4375    0.0000 N   0  0  0  0  0  0  0  0  0  0  0  0
  -11.1996   -5.9703    0.0000 C   0  0  0  0  0  0  0  0  0  0  0  0
   -9.7730   -5.5068    0.0000 C   0  0  0  0  0  0  0  0  0  0  0  0
   -8.6583   -6.5105    0.0000 N   0  0  0  0  0  0  0  0  0  0  0  0
   -7.2317   -6.0469    0.0000 C   0  0  0  0  0  0  0  0  0  0  0  0
   -6.1170   -7.0506    0.0000 C   0  0  0  0  0  0  0  0  0  0  0  0
   -4.6904   -6.5871    0.0000 C   0  0  0  0  0  0  0  0  0  0  0  0
   -4.3786   -5.1199    0.0000 C   0  0  0  0  0  0  0  0  0  0  0  0
   -2.9520   -4.6564    0.0000 C   0  0  0  0  0  0  0  0  0  0  0  0
   -1.8373   -5.6601    0.0000 O   0  0  0  0  0  0  0  0  0  0  0  0
   -2.6401   -3.1891    0.0000 N   0  0  0  0  0  0  0  0  0  0  0  0
   -1.2135   -2.7256    0.0000 C   0  0  0  0  0  0  0  0  0  0  0  0
   -0.0000   -3.6073    0.0000 N   0  0  0  0  0  0  0  0  0  0  0  0
    1.2135   -2.7256    0.0000 N   0  0  0  0  0  0  0  0  0  0  0  0
    0.7500   -1.2990    0.0000 C   0  0  0  0  0  0  0  0  0  0  0  0
    1.5000    0.0000    0.0000 C   0  0  0  0  0  0  0  0  0  0  0  0
    0.7500    1.2990    0.0000 C   0  0  0  0  0  0  0  0  0  0  0  0
   -0.7500    1.2990    0.0000 C   0  0  0  0  0  0  0  0  0  0  0  0
   -1.5000    2.5981    0.0000 C   0  0  0  0  0  0  0  0  0  0  0  0
   -0.7500    3.8971    0.0000 C   0  0  0  0  0  0  0  0  0  0  0  0
    0.7500    3.8971    0.0000 C   0  0  0  0  0  0  0  0  0  0  0  0
    1.5000    5.1962    0.0000 C   0  0  0  0  0  0  0  0  0  0  0  0
    3.0000    5.1962    0.0000 F   0  0  0  0  0  0  0  0  0  0  0  0
    0.7500    6.4952    0.0000 C   0  0  0  0  0  0  0  0  0  0  0  0
   -0.7500    6.4952    0.0000 C   0  0  0  0  0  0  0  0  0  0  0  0
   -1.5000    7.7942    0.0000 F   0  0  0  0  0  0  0  0  0  0  0  0
   -1.5000    5.1962    0.0000 C   0  0  0  0  0  0  0  0  0  0  0  0
   -1.5000    0.0000    0.0000 C   0  0  0  0  0  0  0  0  0  0  0  0
   -0.7500   -1.2990    0.0000 C   0  0  0  0  0  0  0  0  0  0  0  0
   -5.4933   -4.1162    0.0000 C   0  0  0  0  0  0  0  0  0  0  0  0
   -5.1814   -2.6490    0.0000 N   0  0  0  0  0  0  0  0  0  0  0  0
   -6.2961   -1.6453    0.0000 C   0  0  0  0  0  0  0  0  0  0  0  0
   -5.9843   -0.1781    0.0000 C   0  0  0  0  0  0  0  0  0  0  0  0
   -4.7263    0.6389    0.0000 C   0  0  0  0  0  0  0  0  0  0  0  0
   -5.5432    1.8969    0.0000 N   0  0  0  0  0  0  0  0  0  0  0  0
   -5.2313    3.3641    0.0000 C   0  0  0  0  0  0  0  0  0  0  0  0
   -6.8012    1.0799    0.0000 C   0  0  0  0  0  0  0  0  0  0  0  0
   -6.9199   -4.5797    0.0000 C   0  0  0  0  0  0  0  0  0  0  0  0
   -8.9702   -7.9777    0.0000 C   0  0  0  0  0  0  0  0  0  0  0  0
  -10.3968   -8.4412    0.0000 C   0  0  0  0  0  0  0  0  0  0  0  0
  1  2  1  0
  2  3  1  0
  3  4  1  0
  4  5  1  0
  5  6  1  0
  6  7  2  0
  7  8  1  0
  8  9  2  0
  9 10  1  0
 10 11  2  0
 10 12  1  0
 12 13  1  0
 13 14  2  0
 14 15  1  0
 15 16  1  0
 16 17  2  0
 17 18  1  0
 18 19  2  0
 19 20  1  0
 20 21  1  0
 21 22  2  0
 22 23  1  0
 23 24  1  0
 23 25  2  0
 25 26  1  0
 26 27  1  0
 26 28  2  0
 19 29  1  0
 29 30  2  0
  9 31  1  0
 31 32  1  0
 32 33  1  0
 33 34  1  0
 34 35  1  0
 35 36  1  0
 36 37  1  0
 36 38  1  0
 31 39  2  0
  5 40  1  0
 40 41  1  0
 41  2  1  0
 39  6  1  0
 30 13  1  0
 38 34  1  0
 30 16  1  0
 28 21  1  0
M  END
>  <Compound_ID>  (98) 
CHEMBL3806280

>  <Molecule Name>  (98) 
nan

>  <Molecular Weight>  (98) 
559.67

>  <AlogP>  (98) 
4.41

>  <Smiles>  (98) 
CN1CCN(c2ccc(C(=O)Nc3n[nH]c4ccc(Cc5cc(F)cc(F)c5)cc34)c(NCC3CN(C)C3)c2)CC1

>  <Standard Type>  (98) 
IC50

>  <Standard Relation>  (98) 
'='

>  <Standard Units>  (98) 
nM

>  <Standard Value>  (98) 
67.0

>  <Assay ChEMBL ID>  (98) 
CHEMBL3806916

>  <Assay Description>  (98) 
Inhibition of recombinant ALK (unknown origin) in presence of gamma33-ATP

>  <BAO Format ID>  (98) 
BAO_0000357

>  <BAO Label>  (98) 
single protein format

>  <Assay Organism>  (98) 
Homo sapiens

>  <Target ChEMBL ID>  (98) 
CHEMBL4247

>  <Target Name>  (98) 
ALK tyrosine kinase receptor

>  <Target Organism>  (98) 
Homo sapiens

>  <Target Type>  (98) 
SINGLE PROTEIN

>  <Document ChEMBL ID>  (98) 
CHEMBL3804811

>  <Source Description>  (98) 
Scientific Literature

>  <Document Journal>  (98) 
J Med Chem

>  <Document Year>  (98) 
2016.0

>  <Active>  (98) 
1.0

>  <bits>  (98) 
<rdkit.DataStructs.cDataStructs.ExplicitBitVect object at 0x000002422F1E1EE0>

>  <Group>  (98) 
G2

$$$$

     RDKit          2D

 37 40  0  0  0  0  0  0  0  0999 V2000
    3.0000    0.0000    0.0000 C   0  0  0  0  0  0  0  0  0  0  0  0
    1.5000    0.0000    0.0000 C   0  0  0  0  0  0  0  0  0  0  0  0
    0.7500   -1.2990    0.0000 C   0  0  0  0  0  0  0  0  0  0  0  0
   -0.7500   -1.2990    0.0000 C   0  0  0  0  0  0  0  0  0  0  0  0
   -1.5000   -2.5981    0.0000 N   0  0  0  0  0  0  0  0  0  0  0  0
   -3.0000   -2.5981    0.0000 C   0  0  0  0  0  0  0  0  0  0  0  0
   -3.7500   -1.2990    0.0000 N   0  0  0  0  0  0  0  0  0  0  0  0
   -5.2500   -1.2990    0.0000 C   0  0  0  0  0  0  0  0  0  0  0  0
   -6.0000   -2.5981    0.0000 C   0  0  0  0  0  0  0  0  0  0  0  0
   -7.5000   -2.5981    0.0000 Cl  0  0  0  0  0  0  0  0  0  0  0  0
   -5.2500   -3.8971    0.0000 C   0  0  0  0  0  0  0  0  0  0  0  0
   -6.0000   -5.1962    0.0000 N   0  0  0  0  0  0  0  0  0  0  0  0
   -5.2500   -6.4952    0.0000 C   0  0  0  0  0  0  0  0  0  0  0  0
   -3.7582   -6.6520    0.0000 C   0  0  0  0  0  0  0  0  0  0  0  0
   -3.4463   -8.1192    0.0000 N   0  0  0  0  0  0  0  0  0  0  0  0
   -4.7454   -8.8692    0.0000 N   0  0  0  0  0  0  0  0  0  0  0  0
   -5.8601   -7.8655    0.0000 C   0  0  0  0  0  0  0  0  0  0  0  0
   -7.3273   -8.1774    0.0000 S   0  0  0  0  0  0  0  0  0  0  0  0
   -7.6392   -6.7102    0.0000 O   0  0  0  0  0  0  0  0  0  0  0  0
   -7.0155   -9.6446    0.0000 O   0  0  0  0  0  0  0  0  0  0  0  0
   -8.7945   -8.4892    0.0000 C   0  0  0  0  0  0  0  0  0  0  0  0
   -9.7982   -7.3745    0.0000 C   0  0  0  0  0  0  0  0  0  0  0  0
   -9.2581   -9.9158    0.0000 C   0  0  0  0  0  0  0  0  0  0  0  0
   -3.7500   -3.8971    0.0000 N   0  0  0  0  0  0  0  0  0  0  0  0
   -1.5000    0.0000    0.0000 C   0  0  0  0  0  0  0  0  0  0  0  0
   -3.0000    0.0000    0.0000 O   0  0  0  0  0  0  0  0  0  0  0  0
   -3.7500    1.2990    0.0000 C   0  0  0  0  0  0  0  0  0  0  0  0
   -5.2500    1.2990    0.0000 C   0  0  0  0  0  0  0  0  0  0  0  0
   -3.0000    2.5981    0.0000 C   0  0  0  0  0  0  0  0  0  0  0  0
   -0.7500    1.2990    0.0000 C   0  0  0  0  0  0  0  0  0  0  0  0
    0.7500    1.2990    0.0000 C   0  0  0  0  0  0  0  0  0  0  0  0
    1.5000    2.5981    0.0000 C   0  0  0  0  0  0  0  0  0  0  0  0
    3.0000    2.5981    0.0000 C   0  0  0  0  0  0  0  0  0  0  0  0
    3.7500    3.8971    0.0000 C   0  0  0  0  0  0  0  0  0  0  0  0
    3.0000    5.1962    0.0000 N   0  0  0  0  0  0  0  0  0  0  0  0
    1.5000    5.1962    0.0000 C   0  0  0  0  0  0  0  0  0  0  0  0
    0.7500    3.8971    0.0000 C   0  0  0  0  0  0  0  0  0  0  0  0
  1  2  1  0
  2  3  2  0
  3  4  1  0
  4  5  1  0
  5  6  1  0
  6  7  2  0
  7  8  1  0
  8  9  2  0
  9 10  1  0
  9 11  1  0
 11 12  1  0
 12 13  1  0
 13 14  2  0
 14 15  1  0
 15 16  1  0
 16 17  2  0
 17 18  1  0
 18 19  2  0
 18 20  2  0
 18 21  1  0
 21 22  1  0
 21 23  1  0
 11 24  2  0
  4 25  2  0
 25 26  1  0
 26 27  1  0
 27 28  1  0
 27 29  1  0
 25 30  1  0
 30 31  2  0
 31 32  1  0
 32 33  1  0
 33 34  1  0
 34 35  1  0
 35 36  1  0
 36 37  1  0
 31  2  1  0
 37 32  1  0
 24  6  1  0
 17 13  1  0
M  END
>  <Compound_ID>  (99) 
CHEMBL3786006

>  <Molecule Name>  (99) 
nan

>  <Molecular Weight>  (99) 
548.11

>  <AlogP>  (99) 
5.09

>  <Smiles>  (99) 
Cc1cc(Nc2ncc(Cl)c(Nc3c[nH]nc3S(=O)(=O)C(C)C)n2)c(OC(C)C)cc1C1CCNCC1

>  <Standard Type>  (99) 
IC50

>  <Standard Relation>  (99) 
'='

>  <Standard Units>  (99) 
nM

>  <Standard Value>  (99) 
28.0

>  <Assay ChEMBL ID>  (99) 
CHEMBL3791911

>  <Assay Description>  (99) 
Inhibition of recombinant human ALK L1196M mutant using tyrosine kinase substrate-biotin after 30 mins by HTRF assay

>  <BAO Format ID>  (99) 
BAO_0000357

>  <BAO Label>  (99) 
single protein format

>  <Assay Organism>  (99) 
Homo sapiens

>  <Target ChEMBL ID>  (99) 
CHEMBL4247

>  <Target Name>  (99) 
ALK tyrosine kinase receptor

>  <Target Organism>  (99) 
Homo sapiens

>  <Target Type>  (99) 
SINGLE PROTEIN

>  <Document ChEMBL ID>  (99) 
CHEMBL3785058

>  <Source Description>  (99) 
Scientific Literature

>  <Document Journal>  (99) 
Bioorg Med Chem Lett

>  <Document Year>  (99) 
2016.0

>  <Active>  (99) 
1.0

>  <bits>  (99) 
<rdkit.DataStructs.cDataStructs.ExplicitBitVect object at 0x000002422F1E0DD0>

>  <Group>  (99) 
G2

$$$$

     RDKit          2D

 62 68  0  0  0  0  0  0  0  0999 V2000
  -10.5000   -7.7942    0.0000 C   0  0  0  0  0  0  0  0  0  0  0  0
   -9.7500   -9.0933    0.0000 O   0  0  0  0  0  0  0  0  0  0  0  0
   -8.2500   -9.0933    0.0000 C   0  0  0  0  0  0  0  0  0  0  0  0
   -7.5000   -7.7942    0.0000 C   0  0  0  0  0  0  0  0  0  0  0  0
   -6.0000   -7.7942    0.0000 C   0  0  0  0  0  0  0  0  0  0  0  0
   -5.2500   -9.0933    0.0000 C   0  0  0  0  0  0  0  0  0  0  0  0
   -3.7500   -9.0933    0.0000 N   0  0  0  0  0  0  0  0  0  0  0  0
   -3.0000   -7.7942    0.0000 C   0  0  0  0  0  0  0  0  0  0  0  0
   -3.7500   -6.4952    0.0000 O   0  0  0  0  0  0  0  0  0  0  0  0
   -1.5000   -7.7942    0.0000 C   0  0  0  0  0  0  0  0  0  0  0  0
   -0.7500   -6.4952    0.0000 N   0  0  0  0  0  0  0  0  0  0  0  0
    0.7500   -6.4952    0.0000 C   0  0  0  0  0  0  0  0  0  0  0  0
    1.5000   -5.1962    0.0000 C   0  0  0  0  0  0  0  0  0  0  0  0
    0.7500   -3.8971    0.0000 N   0  0  0  0  0  0  0  0  0  0  0  0
    1.5000   -2.5981    0.0000 C   0  0  0  0  0  0  0  0  0  0  0  0
    0.7500   -1.2990    0.0000 C   0  0  0  0  0  0  0  0  0  0  0  0
    1.5000    0.0000    0.0000 C   0  0  0  0  0  0  0  0  0  0  0  0
    0.7500    1.2990    0.0000 C   0  0  0  0  0  0  0  0  0  0  0  0
   -0.7500    1.2990    0.0000 C   0  0  0  0  0  0  0  0  0  0  0  0
   -1.5000    0.0000    0.0000 C   0  0  0  0  0  0  0  0  0  0  0  0
   -0.7500   -1.2990    0.0000 C   0  0  0  0  0  0  0  0  0  0  0  0
   -2.9672    0.3119    0.0000 C   0  0  0  0  0  0  0  0  0  0  0  0
   -3.1240    1.8037    0.0000 N   0  0  0  0  0  0  0  0  0  0  0  0
   -4.4231    2.5537    0.0000 C   0  0  0  0  0  0  0  0  0  0  0  0
   -5.7221    1.8037    0.0000 O   0  0  0  0  0  0  0  0  0  0  0  0
   -4.4231    4.0537    0.0000 C   0  0  0  0  0  0  0  0  0  0  0  0
   -3.1240    4.8037    0.0000 C   0  0  0  0  0  0  0  0  0  0  0  0
   -3.1240    6.3037    0.0000 C   0  0  0  0  0  0  0  0  0  0  0  0
   -1.8250    7.0537    0.0000 C   0  0  0  0  0  0  0  0  0  0  0  0
   -0.5259    6.3037    0.0000 C   0  0  0  0  0  0  0  0  0  0  0  0
   -1.8250    8.5537    0.0000 C   0  0  0  0  0  0  0  0  0  0  0  0
   -4.4231    7.0537    0.0000 C   0  0  0  0  0  0  0  0  0  0  0  0
   -4.4231    8.5537    0.0000 O   0  0  0  0  0  0  0  0  0  0  0  0
   -5.7221    6.3037    0.0000 C   0  0  0  0  0  0  0  0  0  0  0  0
   -5.7221    4.8037    0.0000 C   0  0  0  0  0  0  0  0  0  0  0  0
   -7.0211    4.0537    0.0000 O   0  0  0  0  0  0  0  0  0  0  0  0
   -1.7537    2.4138    0.0000 C   0  0  0  0  0  0  0  0  0  0  0  0
   -0.7500   -3.8971    0.0000 C   0  0  0  0  0  0  0  0  0  0  0  0
   -1.5000   -5.1962    0.0000 C   0  0  0  0  0  0  0  0  0  0  0  0
   -6.0000  -10.3923    0.0000 C   0  0  0  0  0  0  0  0  0  0  0  0
   -7.5000  -10.3923    0.0000 C   0  0  0  0  0  0  0  0  0  0  0  0
   -8.2500  -11.6913    0.0000 N   0  0  0  0  0  0  0  0  0  0  0  0
   -7.5000  -12.9904    0.0000 C   0  0  0  0  0  0  0  0  0  0  0  0
   -8.2500  -14.2894    0.0000 N   0  0  0  0  0  0  0  0  0  0  0  0
   -7.5000  -15.5885    0.0000 C   0  0  0  0  0  0  0  0  0  0  0  0
   -6.0000  -15.5885    0.0000 C   0  0  0  0  0  0  0  0  0  0  0  0
   -5.2500  -16.8875    0.0000 Cl  0  0  0  0  0  0  0  0  0  0  0  0
   -5.2500  -14.2894    0.0000 C   0  0  0  0  0  0  0  0  0  0  0  0
   -3.7500  -14.2894    0.0000 N   0  0  0  0  0  0  0  0  0  0  0  0
   -3.0000  -12.9904    0.0000 C   0  0  0  0  0  0  0  0  0  0  0  0
   -3.7500  -11.6913    0.0000 C   0  0  0  0  0  0  0  0  0  0  0  0
   -3.0000  -10.3923    0.0000 C   0  0  0  0  0  0  0  0  0  0  0  0
   -1.5000  -10.3923    0.0000 C   0  0  0  0  0  0  0  0  0  0  0  0
   -0.7500  -11.6913    0.0000 C   0  0  0  0  0  0  0  0  0  0  0  0
   -1.5000  -12.9904    0.0000 C   0  0  0  0  0  0  0  0  0  0  0  0
   -0.7500  -14.2894    0.0000 S   0  0  0  0  0  0  0  0  0  0  0  0
   -2.0490  -15.0394    0.0000 O   0  0  0  0  0  0  0  0  0  0  0  0
    0.5490  -13.5394    0.0000 O   0  0  0  0  0  0  0  0  0  0  0  0
    0.0000  -15.5885    0.0000 C   0  0  0  0  0  0  0  0  0  0  0  0
   -0.7500  -16.8875    0.0000 C   0  0  0  0  0  0  0  0  0  0  0  0
    1.5000  -15.5885    0.0000 C   0  0  0  0  0  0  0  0  0  0  0  0
   -6.0000  -12.9904    0.0000 N   0  0  0  0  0  0  0  0  0  0  0  0
  1  2  1  0
  2  3  1  0
  3  4  2  0
  4  5  1  0
  5  6  2  0
  6  7  1  0
  7  8  1  0
  8  9  2  0
  8 10  1  0
 10 11  1  0
 11 12  1  0
 12 13  1  0
 13 14  1  0
 14 15  1  0
 15 16  1  0
 16 17  2  0
 17 18  1  0
 18 19  2  0
 19 20  1  0
 20 21  2  0
 20 22  1  0
 22 23  1  0
 23 24  1  0
 24 25  2  0
 24 26  1  0
 26 27  2  0
 27 28  1  0
 28 29  1  0
 29 30  1  0
 29 31  1  0
 28 32  2  0
 32 33  1  0
 32 34  1  0
 34 35  2  0
 35 36  1  0
 23 37  1  0
 14 38  1  0
 38 39  1  0
  6 40  1  0
 40 41  2  0
 41 42  1  0
 42 43  1  0
 43 44  2  0
 44 45  1  0
 45 46  2  0
 46 47  1  0
 46 48  1  0
 48 49  1  0
 49 50  1  0
 50 51  2  0
 51 52  1  0
 52 53  2  0
 53 54  1  0
 54 55  2  0
 55 56  1  0
 56 57  2  0
 56 58  2  0
 56 59  1  0
 59 60  1  0
 59 61  1  0
 48 62  2  0
 41  3  1  0
 62 43  1  0
 39 11  1  0
 55 50  1  0
 21 16  1  0
 35 26  1  0
 37 19  1  0
M  END
>  <Compound_ID>  (100) 
CHEMBL4167999

>  <Molecule Name>  (100) 
nan

>  <Molecular Weight>  (100) 
883.47

>  <AlogP>  (100) 
7.25

>  <Smiles>  (100) 
COc1ccc(NC(=O)CN2CCN(Cc3ccc4c(c3)CN(C(=O)c3cc(C(C)C)c(O)cc3O)C4)CC2)cc1Nc1ncc(Cl)c(Nc2ccccc2S(=O)(=O)C(C)C)n1

>  <Standard Type>  (100) 
IC50

>  <Standard Relation>  (100) 
'='

>  <Standard Units>  (100) 
nM

>  <Standard Value>  (100) 
9.8

>  <Assay ChEMBL ID>  (100) 
CHEMBL4153979

>  <Assay Description>  (100) 
Inhibition of recombinant ALK (unknown origin) using poly (Glu,Tyr)4:1 as substrate after 60 mins by ELISA

>  <BAO Format ID>  (100) 
BAO_0000357

>  <BAO Label>  (100) 
single protein format

>  <Assay Organism>  (100) 
Homo sapiens

>  <Target ChEMBL ID>  (100) 
CHEMBL4247

>  <Target Name>  (100) 
ALK tyrosine kinase receptor

>  <Target Organism>  (100) 
Homo sapiens

>  <Target Type>  (100) 
SINGLE PROTEIN

>  <Document ChEMBL ID>  (100) 
CHEMBL4152232

>  <Source Description>  (100) 
Scientific Literature

>  <Document Journal>  (100) 
Eur J Med Chem

>  <Document Year>  (100) 
2018.0

>  <Active>  (100) 
1.0

>  <bits>  (100) 
<rdkit.DataStructs.cDataStructs.ExplicitBitVect object at 0x000002422F1E0040>

>  <Group>  (100) 
G2

$$$$

     RDKit          2D

 36 40  0  0  0  0  0  0  0  0999 V2000
   -4.6883    2.2939    0.0000 N   0  0  0  0  0  0  0  0  0  0  0  0
   -3.5736    1.2902    0.0000 C   0  0  0  0  0  0  0  0  0  0  0  0
   -3.8855   -0.1771    0.0000 O   0  0  0  0  0  0  0  0  0  0  0  0
   -2.1470    1.7537    0.0000 C   0  0  0  0  0  0  0  0  0  0  0  0
   -1.8351    3.2209    0.0000 C   0  0  0  0  0  0  0  0  0  0  0  0
   -2.9499    4.2246    0.0000 N   0  0  0  0  0  0  0  0  0  0  0  0
   -2.6380    5.6918    0.0000 C   0  0  0  0  0  0  0  0  0  0  0  0
   -1.2114    6.1554    0.0000 C   0  0  0  0  0  0  0  0  0  0  0  0
   -0.0967    5.1517    0.0000 F   0  0  0  0  0  0  0  0  0  0  0  0
   -0.8995    7.6226    0.0000 C   0  0  0  0  0  0  0  0  0  0  0  0
   -2.0143    8.6263    0.0000 C   0  0  0  0  0  0  0  0  0  0  0  0
   -1.7024   10.0935    0.0000 N   0  0  0  0  0  0  0  0  0  0  0  0
   -0.2758   10.5570    0.0000 C   0  0  0  0  0  0  0  0  0  0  0  0
    0.0361   12.0242    0.0000 C   0  0  0  0  0  0  0  0  0  0  0  0
   -1.0786   13.0279    0.0000 N   0  0  0  0  0  0  0  0  0  0  0  0
   -2.5052   12.5644    0.0000 C   0  0  0  0  0  0  0  0  0  0  0  0
   -2.8171   11.0972    0.0000 C   0  0  0  0  0  0  0  0  0  0  0  0
   -3.4408    8.1628    0.0000 C   0  0  0  0  0  0  0  0  0  0  0  0
   -3.7527    6.6955    0.0000 C   0  0  0  0  0  0  0  0  0  0  0  0
   -5.1793    6.2320    0.0000 F   0  0  0  0  0  0  0  0  0  0  0  0
   -0.4086    3.6844    0.0000 N   0  0  0  0  0  0  0  0  0  0  0  0
    0.7062    2.6807    0.0000 C   0  0  0  0  0  0  0  0  0  0  0  0
    2.1328    3.1443    0.0000 C   0  0  0  0  0  0  0  0  0  0  0  0
    3.2475    2.1406    0.0000 C   0  0  0  0  0  0  0  0  0  0  0  0
    4.6741    2.6041    0.0000 C   0  0  0  0  0  0  0  0  0  0  0  0
    4.9859    4.0713    0.0000 Cl  0  0  0  0  0  0  0  0  0  0  0  0
    5.7888    1.6004    0.0000 C   0  0  0  0  0  0  0  0  0  0  0  0
    5.4769    0.1332    0.0000 C   0  0  0  0  0  0  0  0  0  0  0  0
    4.0503   -0.3303    0.0000 C   0  0  0  0  0  0  0  0  0  0  0  0
    2.9356    0.6734    0.0000 C   0  0  0  0  0  0  0  0  0  0  0  0
    2.1010    0.1518    0.0000 Cl  0  0  0  0  0  0  0  0  0  0  0  0
    0.3943    1.2135    0.0000 N   0  0  0  0  0  0  0  0  0  0  0  0
    1.2760    0.0000    0.0000 C   0  0  0  0  0  0  0  0  0  0  0  0
    0.3943   -1.2135    0.0000 N   0  0  0  0  0  0  0  0  0  0  0  0
   -1.0323   -0.7500    0.0000 N   0  0  0  0  0  0  0  0  0  0  0  0
   -1.0323    0.7500    0.0000 C   0  0  0  0  0  0  0  0  0  0  0  0
  1  2  1  0
  2  3  2  0
  2  4  1  0
  4  5  2  0
  5  6  1  0
  6  7  1  0
  7  8  2  0
  8  9  1  0
  8 10  1  0
 10 11  2  0
 11 12  1  0
 12 13  1  0
 13 14  1  0
 14 15  1  0
 15 16  1  0
 16 17  1  0
 11 18  1  0
 18 19  2  0
 19 20  1  0
  5 21  1  0
 21 22  2  0
 22 23  1  0
 23 24  1  0
 24 25  2  0
 25 26  1  0
 25 27  1  0
 27 28  2  0
 28 29  1  0
 29 30  2  0
 30 31  1  0
 22 32  1  0
 32 33  1  0
 33 34  2  0
 34 35  1  0
 35 36  2  0
 36  4  1  0
 19  7  1  0
 30 24  1  0
 36 32  1  0
 17 12  1  0
M  END
>  <Compound_ID>  (101) 
CHEMBL3934342

>  <Molecule Name>  (101) 
nan

>  <Molecular Weight>  (101) 
533.37

>  <AlogP>  (101) 
3.55

>  <Smiles>  (101) 
NC(=O)c1c(Nc2c(F)cc(N3CCNCC3)cc2F)nc(Cc2c(Cl)cccc2Cl)n2cnnc12

>  <Standard Type>  (101) 
Ki

>  <Standard Relation>  (101) 
'='

>  <Standard Units>  (101) 
nM

>  <Standard Value>  (101) 
13.0

>  <Assay ChEMBL ID>  (101) 
CHEMBL3887723

>  <Assay Description>  (101) 
Enzyme Inhibition Assay: ALK kinase assays were conducted with the indicated final concentrations unless otherwise specified. In 384 well black plates (Axygen), 8 ul of compound (2% DMSO) was incubated with 8 ul Lck-peptide substrate (0.5 uM, biotin-Ahx-GAEEEIYAAFFA-COOH) and 8 ul of a mixture of ALK (3 nM, Millipore) and ATP (50 uM) in reaction buffer (50 mM Hepes, pH 7.4; 10 mM MgCl2; 2 mM MnCl2; 0.1 mM sodium orthovanadate; 0.01% BSA and 1 mM DTT (added fresh before assay) for 1 h at room temperature. Reactions were then quenched by the addition of 30 ul quench solution (streptavidin-allophycocyanin and Europium-cryptate PT66 monoclonal antibody in 40 mM Hepes, pH 7.4; 480 mM KF; 66 mM EDTA; 0.01% Tween-20; and 0.1% BSA) at room temperature. Plates were read 1 h after quenching on an Envision Multilaber Reader and IC50 values were calculated using a sigmoidal fit of the concentration/inhibition response curves. These values were converted to apparent Ki values.

>  <BAO Format ID>  (101) 
BAO_0000357

>  <BAO Label>  (101) 
single protein format

>  <Assay Organism>  (101) 
Homo sapiens

>  <Target ChEMBL ID>  (101) 
CHEMBL4247

>  <Target Name>  (101) 
ALK tyrosine kinase receptor

>  <Target Organism>  (101) 
Homo sapiens

>  <Target Type>  (101) 
SINGLE PROTEIN

>  <Document ChEMBL ID>  (101) 
CHEMBL3886424

>  <Source Description>  (101) 
BindingDB Database

>  <Document Journal>  (101) 
nan

>  <Document Year>  (101) 
2015.0

>  <Active>  (101) 
1.0

>  <bits>  (101) 
<rdkit.DataStructs.cDataStructs.ExplicitBitVect object at 0x000002422F1E3D10>

>  <Group>  (101) 
G2

$$$$

     RDKit          2D

 47 51  0  0  0  0  0  0  0  0999 V2000
    3.7500   -1.2990    0.0000 C   0  0  0  0  0  0  0  0  0  0  0  0
    3.0000    0.0000    0.0000 O   0  0  0  0  0  0  0  0  0  0  0  0
    1.5000    0.0000    0.0000 C   0  0  0  0  0  0  0  0  0  0  0  0
    0.7500   -1.2990    0.0000 C   0  0  0  0  0  0  0  0  0  0  0  0
   -0.7500   -1.2990    0.0000 C   0  0  0  0  0  0  0  0  0  0  0  0
   -1.5000   -2.5981    0.0000 N   0  0  0  0  0  0  0  0  0  0  0  0
   -3.0000   -2.5981    0.0000 C   0  0  0  0  0  0  0  0  0  0  0  0
   -3.7500   -3.8971    0.0000 C   0  0  0  0  0  0  0  0  0  0  0  0
   -3.0000   -5.1962    0.0000 N   0  0  0  0  0  0  0  0  0  0  0  0
   -3.7500   -6.4952    0.0000 C   0  0  0  0  0  0  0  0  0  0  0  0
   -5.2500   -6.4952    0.0000 C   0  0  0  0  0  0  0  0  0  0  0  0
   -3.0000   -7.7942    0.0000 O   0  0  0  0  0  0  0  0  0  0  0  0
   -1.5000   -5.1962    0.0000 C   0  0  0  0  0  0  0  0  0  0  0  0
   -0.7500   -3.8971    0.0000 C   0  0  0  0  0  0  0  0  0  0  0  0
   -1.5000    0.0000    0.0000 C   0  0  0  0  0  0  0  0  0  0  0  0
   -0.7500    1.2990    0.0000 C   0  0  0  0  0  0  0  0  0  0  0  0
    0.7500    1.2990    0.0000 C   0  0  0  0  0  0  0  0  0  0  0  0
    1.5000    2.5981    0.0000 N   0  0  0  0  0  0  0  0  0  0  0  0
    3.0000    2.5981    0.0000 C   0  0  0  0  0  0  0  0  0  0  0  0
    3.7500    1.2990    0.0000 N   0  0  0  0  0  0  0  0  0  0  0  0
    5.2500    1.2990    0.0000 C   0  0  0  0  0  0  0  0  0  0  0  0
    6.0000    2.5981    0.0000 C   0  0  0  0  0  0  0  0  0  0  0  0
    7.5000    2.5981    0.0000 C   0  0  0  0  0  0  0  0  0  0  0  0
    9.0000    2.5981    0.0000 F   0  0  0  0  0  0  0  0  0  0  0  0
    7.5000    1.0981    0.0000 F   0  0  0  0  0  0  0  0  0  0  0  0
    7.5000    4.0981    0.0000 F   0  0  0  0  0  0  0  0  0  0  0  0
    5.2500    3.8971    0.0000 C   0  0  0  0  0  0  0  0  0  0  0  0
    6.0000    5.1962    0.0000 N   0  0  0  0  0  0  0  0  0  0  0  0
    5.2500    6.4952    0.0000 C   0  0  0  0  0  0  0  0  0  0  0  0
    6.0000    7.7942    0.0000 C   0  0  0  0  0  0  0  0  0  0  0  0
    5.2500    9.0933    0.0000 C   0  0  0  0  0  0  0  0  0  0  0  0
    3.7500    9.0933    0.0000 C   0  0  0  0  0  0  0  0  0  0  0  0
    3.0000   10.3923    0.0000 N   0  0  0  0  0  0  0  0  0  0  0  0
    3.7500   11.6913    0.0000 C   0  0  0  0  0  0  0  0  0  0  0  0
    3.0000   12.9904    0.0000 C   0  0  0  0  0  0  0  0  0  0  0  0
    1.5000   12.9904    0.0000 N   0  0  0  0  0  0  0  0  0  0  0  0
    0.7500   14.2894    0.0000 S   0  0  0  0  0  0  0  0  0  0  0  0
    0.0000   15.5885    0.0000 C   0  0  0  0  0  0  0  0  0  0  0  0
   -0.5490   13.5394    0.0000 O   0  0  0  0  0  0  0  0  0  0  0  0
    2.0490   15.0394    0.0000 O   0  0  0  0  0  0  0  0  0  0  0  0
    0.7500   11.6913    0.0000 C   0  0  0  0  0  0  0  0  0  0  0  0
    1.5000   10.3923    0.0000 C   0  0  0  0  0  0  0  0  0  0  0  0
    3.0000    7.7942    0.0000 C   0  0  0  0  0  0  0  0  0  0  0  0
    3.7500    6.4952    0.0000 C   0  0  0  0  0  0  0  0  0  0  0  0
    3.0000    5.1962    0.0000 O   0  0  0  0  0  0  0  0  0  0  0  0
    1.5000    5.1962    0.0000 C   0  0  0  0  0  0  0  0  0  0  0  0
    3.7500    3.8971    0.0000 N   0  0  0  0  0  0  0  0  0  0  0  0
  1  2  1  0
  2  3  1  0
  3  4  2  0
  4  5  1  0
  5  6  1  0
  6  7  1  0
  7  8  1  0
  8  9  1  0
  9 10  1  0
 10 11  1  0
 10 12  2  0
  9 13  1  0
 13 14  1  0
  5 15  2  0
 15 16  1  0
 16 17  2  0
 17 18  1  0
 18 19  1  0
 19 20  2  0
 20 21  1  0
 21 22  2  0
 22 23  1  0
 23 24  1  0
 23 25  1  0
 23 26  1  0
 22 27  1  0
 27 28  1  0
 28 29  1  0
 29 30  2  0
 30 31  1  0
 31 32  2  0
 32 33  1  0
 33 34  1  0
 34 35  1  0
 35 36  1  0
 36 37  1  0
 37 38  1  0
 37 39  2  0
 37 40  2  0
 36 41  1  0
 41 42  1  0
 32 43  1  0
 43 44  2  0
 44 45  1  0
 45 46  1  0
 27 47  2  0
 17  3  1  0
 47 19  1  0
 14  6  1  0
 44 29  1  0
 42 33  1  0
M  END
>  <Compound_ID>  (102) 
CHEMBL3978871

>  <Molecule Name>  (102) 
nan

>  <Molecular Weight>  (102) 
678.74

>  <AlogP>  (102) 
3.75

>  <Smiles>  (102) 
COc1cc(N2CCN(C(C)=O)CC2)ccc1Nc1ncc(C(F)(F)F)c(Nc2ccc(N3CCN(S(C)(=O)=O)CC3)cc2OC)n1

>  <Standard Type>  (102) 
IC50

>  <Standard Relation>  (102) 
'='

>  <Standard Units>  (102) 
nM

>  <Standard Value>  (102) 
10.0

>  <Assay ChEMBL ID>  (102) 
CHEMBL3887132

>  <Assay Description>  (102) 
Homogeneous Time-resolved fluorescence (HTRF) Assay: In order to measure the inhibitory activity against ALK, a Grainer 96-well round type bottom plate was added with the compounds (2 μl) prepared in Examples 1 to 89, and mixed with ALK enzyme (1 ul) and a peptide substrate (2 μl) with biotin attached thereto for 15 minutes and cultured thereafter. Here, ATP solution (5 μl) was added thereto and kinase reaction was performed at room temperature for 30 minutes. XL 665 (5 μl), to which Streptavidin dissolved in ethylenediaminetetraacetic acid solution was attached, anti-phosphotyrosine antibody (5 μl), to which europium (Eu3+) was attached, were added to a reaction solution to stop the reaction, cultured for 1 hour, and analyzed using Homogeneous Time-resolved fluorescence (HTRF, Cisbio). The result was read by a Wallac Envision 2103 device at the wavelength range of 615/665 nm.

>  <BAO Format ID>  (102) 
BAO_0000357

>  <BAO Label>  (102) 
single protein format

>  <Assay Organism>  (102) 
Homo sapiens

>  <Target ChEMBL ID>  (102) 
CHEMBL4247

>  <Target Name>  (102) 
ALK tyrosine kinase receptor

>  <Target Organism>  (102) 
Homo sapiens

>  <Target Type>  (102) 
SINGLE PROTEIN

>  <Document ChEMBL ID>  (102) 
CHEMBL3886178

>  <Source Description>  (102) 
BindingDB Database

>  <Document Journal>  (102) 
nan

>  <Document Year>  (102) 
2015.0

>  <Active>  (102) 
1.0

>  <bits>  (102) 
<rdkit.DataStructs.cDataStructs.ExplicitBitVect object at 0x000002422F1E3AE0>

>  <Group>  (102) 
G2

$$$$

     RDKit          2D

 31 35  0  0  0  0  0  0  0  0999 V2000
    6.2286   -2.5981    0.0000 C   0  0  0  0  0  0  0  0  0  0  0  0
    5.4786   -1.2990    0.0000 O   0  0  0  0  0  0  0  0  0  0  0  0
    3.9786   -1.2990    0.0000 C   0  0  0  0  0  0  0  0  0  0  0  0
    3.2286   -0.0000    0.0000 C   0  0  0  0  0  0  0  0  0  0  0  0
    1.7286    0.0000    0.0000 N   0  0  0  0  0  0  0  0  0  0  0  0
    1.0777    1.3515    0.0000 C   0  0  0  0  0  0  0  0  0  0  0  0
   -0.3846    1.6852    0.0000 C   0  0  0  0  0  0  0  0  0  0  0  0
   -1.5574    0.7500    0.0000 C   0  0  0  0  0  0  0  0  0  0  0  0
   -2.8564    1.5000    0.0000 C   0  0  0  0  0  0  0  0  0  0  0  0
   -4.1555    0.7500    0.0000 C   0  0  0  0  0  0  0  0  0  0  0  0
   -4.1555   -0.7500    0.0000 C   0  0  0  0  0  0  0  0  0  0  0  0
   -5.4545   -1.5000    0.0000 N   0  0  0  0  0  0  0  0  0  0  0  0
   -6.7535   -0.7500    0.0000 C   0  0  0  0  0  0  0  0  0  0  0  0
   -6.7535    0.7500    0.0000 N   0  0  0  0  0  0  0  0  0  0  0  0
   -8.0526    1.5000    0.0000 C   0  0  0  0  0  0  0  0  0  0  0  0
   -9.3516    0.7500    0.0000 C   0  0  0  0  0  0  0  0  0  0  0  0
  -10.7782    1.2135    0.0000 C   0  0  0  0  0  0  0  0  0  0  0  0
  -11.6599   -0.0000    0.0000 C   0  0  0  0  0  0  0  0  0  0  0  0
  -10.7782   -1.2135    0.0000 C   0  0  0  0  0  0  0  0  0  0  0  0
  -11.2417   -2.6401    0.0000 C   0  0  0  0  0  0  0  0  0  0  0  0
  -12.7090   -2.9520    0.0000 C   0  0  0  0  0  0  0  0  0  0  0  0
  -13.1725   -4.3786    0.0000 C   0  0  0  0  0  0  0  0  0  0  0  0
  -12.1688   -5.4933    0.0000 C   0  0  0  0  0  0  0  0  0  0  0  0
  -10.7016   -5.1814    0.0000 C   0  0  0  0  0  0  0  0  0  0  0  0
  -10.2380   -3.7548    0.0000 C   0  0  0  0  0  0  0  0  0  0  0  0
   -9.3516   -0.7500    0.0000 N   0  0  0  0  0  0  0  0  0  0  0  0
   -8.0526   -1.5000    0.0000 N   0  0  0  0  0  0  0  0  0  0  0  0
   -2.8564   -1.5000    0.0000 C   0  0  0  0  0  0  0  0  0  0  0  0
   -1.5574   -0.7500    0.0000 C   0  0  0  0  0  0  0  0  0  0  0  0
   -0.3846   -1.6852    0.0000 C   0  0  0  0  0  0  0  0  0  0  0  0
    1.0777   -1.3515    0.0000 C   0  0  0  0  0  0  0  0  0  0  0  0
  1  2  1  0
  2  3  1  0
  3  4  1  0
  4  5  1  0
  5  6  1  0
  6  7  1  0
  7  8  1  0
  8  9  2  0
  9 10  1  0
 10 11  2  0
 11 12  1  0
 12 13  1  0
 13 14  1  0
 14 15  2  0
 15 16  1  0
 16 17  2  0
 17 18  1  0
 18 19  2  0
 19 20  1  0
 20 21  2  0
 21 22  1  0
 22 23  2  0
 23 24  1  0
 24 25  2  0
 19 26  1  0
 26 27  1  0
 11 28  1  0
 28 29  2  0
 29 30  1  0
 30 31  1  0
 31  5  1  0
 29  8  1  0
 27 13  2  0
 26 16  1  0
 25 20  1  0
M  END
>  <Compound_ID>  (103) 
CHEMBL1822514

>  <Molecule Name>  (103) 
nan

>  <Molecular Weight>  (103) 
413.53

>  <AlogP>  (103) 
4.19

>  <Smiles>  (103) 
COCCN1CCc2ccc(Nc3ncc4ccc(-c5ccccc5)n4n3)cc2CC1

>  <Standard Type>  (103) 
IC50

>  <Standard Relation>  (103) 
'='

>  <Standard Units>  (103) 
nM

>  <Standard Value>  (103) 
38.0

>  <Assay ChEMBL ID>  (103) 
CHEMBL1825977

>  <Assay Description>  (103) 
Inhibition of human recombinant ALK assessed as phosphorylated product using PLC-gamma/GST substrate by modified ELISA method

>  <BAO Format ID>  (103) 
BAO_0000357

>  <BAO Label>  (103) 
single protein format

>  <Assay Organism>  (103) 
Homo sapiens

>  <Target ChEMBL ID>  (103) 
CHEMBL4247

>  <Target Name>  (103) 
ALK tyrosine kinase receptor

>  <Target Organism>  (103) 
Homo sapiens

>  <Target Type>  (103) 
SINGLE PROTEIN

>  <Document ChEMBL ID>  (103) 
CHEMBL1821719

>  <Source Description>  (103) 
Scientific Literature

>  <Document Journal>  (103) 
J Med Chem

>  <Document Year>  (103) 
2011.0

>  <Active>  (103) 
1.0

>  <bits>  (103) 
<rdkit.DataStructs.cDataStructs.ExplicitBitVect object at 0x000002422F1E37D0>

>  <Group>  (103) 
G2

$$$$

     RDKit          2D

 40 44  0  0  0  0  0  0  0  0999 V2000
    3.7500   -1.2990    0.0000 C   0  0  0  0  0  0  0  0  0  0  0  0
    3.0000    0.0000    0.0000 O   0  0  0  0  0  0  0  0  0  0  0  0
    1.5000    0.0000    0.0000 C   0  0  0  0  0  0  0  0  0  0  0  0
    0.7500   -1.2990    0.0000 C   0  0  0  0  0  0  0  0  0  0  0  0
   -0.7500   -1.2990    0.0000 C   0  0  0  0  0  0  0  0  0  0  0  0
   -1.5000   -2.5981    0.0000 N   0  0  0  0  0  0  0  0  0  0  0  0
   -3.0000   -2.5981    0.0000 C   0  0  0  0  0  0  0  0  0  0  0  0
   -3.7500   -3.8971    0.0000 C   0  0  0  0  0  0  0  0  0  0  0  0
   -3.0000   -5.1962    0.0000 C   0  0  0  0  0  0  0  0  0  0  0  0
   -3.7500   -6.4952    0.0000 N   0  0  0  0  0  0  0  0  0  0  0  0
   -5.2500   -6.4952    0.0000 C   0  0  0  0  0  0  0  0  0  0  0  0
   -6.0000   -7.7942    0.0000 C   0  0  0  0  0  0  0  0  0  0  0  0
   -5.2500   -9.0933    0.0000 N   0  0  0  0  0  0  0  0  0  0  0  0
   -6.0000  -10.3923    0.0000 C   0  0  0  0  0  0  0  0  0  0  0  0
   -3.7500   -9.0933    0.0000 C   0  0  0  0  0  0  0  0  0  0  0  0
   -3.0000   -7.7942    0.0000 C   0  0  0  0  0  0  0  0  0  0  0  0
   -1.5000   -5.1962    0.0000 C   0  0  0  0  0  0  0  0  0  0  0  0
   -0.7500   -3.8971    0.0000 C   0  0  0  0  0  0  0  0  0  0  0  0
   -1.5000    0.0000    0.0000 C   0  0  0  0  0  0  0  0  0  0  0  0
   -0.7500    1.2990    0.0000 C   0  0  0  0  0  0  0  0  0  0  0  0
    0.7500    1.2990    0.0000 C   0  0  0  0  0  0  0  0  0  0  0  0
    1.5000    2.5981    0.0000 N   0  0  0  0  0  0  0  0  0  0  0  0
    3.0000    2.5981    0.0000 C   0  0  0  0  0  0  0  0  0  0  0  0
    3.7500    1.2990    0.0000 N   0  0  0  0  0  0  0  0  0  0  0  0
    5.2500    1.2990    0.0000 C   0  0  0  0  0  0  0  0  0  0  0  0
    6.0000    2.5981    0.0000 C   0  0  0  0  0  0  0  0  0  0  0  0
    7.5000    2.5981    0.0000 Cl  0  0  0  0  0  0  0  0  0  0  0  0
    5.2500    3.8971    0.0000 C   0  0  0  0  0  0  0  0  0  0  0  0
    6.0000    5.1962    0.0000 N   0  0  0  0  0  0  0  0  0  0  0  0
    5.2500    6.4952    0.0000 C   0  0  0  0  0  0  0  0  0  0  0  0
    3.7500    6.4952    0.0000 C   0  0  0  0  0  0  0  0  0  0  0  0
    3.0000    7.7942    0.0000 C   0  0  0  0  0  0  0  0  0  0  0  0
    3.7500    9.0933    0.0000 C   0  0  0  0  0  0  0  0  0  0  0  0
    5.2500    9.0933    0.0000 C   0  0  0  0  0  0  0  0  0  0  0  0
    6.0000    7.7942    0.0000 C   0  0  0  0  0  0  0  0  0  0  0  0
    7.5000    7.7942    0.0000 S   0  0  0  0  0  0  0  0  0  0  0  0
    9.0000    7.7942    0.0000 C   0  0  0  0  0  0  0  0  0  0  0  0
    7.5000    6.2942    0.0000 O   0  0  0  0  0  0  0  0  0  0  0  0
    7.5000    9.2942    0.0000 O   0  0  0  0  0  0  0  0  0  0  0  0
    3.7500    3.8971    0.0000 N   0  0  0  0  0  0  0  0  0  0  0  0
  1  2  1  0
  2  3  1  0
  3  4  2  0
  4  5  1  0
  5  6  1  0
  6  7  1  0
  7  8  1  0
  8  9  1  0
  9 10  1  0
 10 11  1  0
 11 12  1  0
 12 13  1  0
 13 14  1  0
 13 15  1  0
 15 16  1  0
  9 17  1  0
 17 18  1  0
  5 19  2  0
 19 20  1  0
 20 21  2  0
 21 22  1  0
 22 23  1  0
 23 24  2  0
 24 25  1  0
 25 26  2  0
 26 27  1  0
 26 28  1  0
 28 29  1  0
 29 30  1  0
 30 31  2  0
 31 32  1  0
 32 33  2  0
 33 34  1  0
 34 35  2  0
 35 36  1  0
 36 37  1  0
 36 38  2  0
 36 39  2  0
 28 40  2  0
 21  3  1  0
 40 23  1  0
 18  6  1  0
 35 30  1  0
 16 10  1  0
M  END
>  <Compound_ID>  (104) 
CHEMBL3822475

>  <Molecule Name>  (104) 
nan

>  <Molecular Weight>  (104) 
586.16

>  <AlogP>  (104) 
4.25

>  <Smiles>  (104) 
COc1cc(N2CCC(N3CCN(C)CC3)CC2)ccc1Nc1ncc(Cl)c(Nc2ccccc2S(C)(=O)=O)n1

>  <Standard Type>  (104) 
IC50

>  <Standard Relation>  (104) 
'='

>  <Standard Units>  (104) 
nM

>  <Standard Value>  (104) 
0.59

>  <Assay ChEMBL ID>  (104) 
CHEMBL3824709

>  <Assay Description>  (104) 
Inhibition of human ALK using poly[Glu:Tyr] (4:1) as substrate and [gamma-33P]ATP measured after 1 hr

>  <BAO Format ID>  (104) 
BAO_0000357

>  <BAO Label>  (104) 
single protein format

>  <Assay Organism>  (104) 
Homo sapiens

>  <Target ChEMBL ID>  (104) 
CHEMBL4247

>  <Target Name>  (104) 
ALK tyrosine kinase receptor

>  <Target Organism>  (104) 
Homo sapiens

>  <Target Type>  (104) 
SINGLE PROTEIN

>  <Document ChEMBL ID>  (104) 
CHEMBL3822358

>  <Source Description>  (104) 
Scientific Literature

>  <Document Journal>  (104) 
J Med Chem

>  <Document Year>  (104) 
2016.0

>  <Active>  (104) 
1.0

>  <bits>  (104) 
<rdkit.DataStructs.cDataStructs.ExplicitBitVect object at 0x000002422F1E34C0>

>  <Group>  (104) 
G2

$$$$

     RDKit          2D

 40 44  0  0  0  0  0  0  0  0999 V2000
    3.7500   -1.2990    0.0000 C   0  0  0  0  0  0  0  0  0  0  0  0
    3.0000    0.0000    0.0000 O   0  0  0  0  0  0  0  0  0  0  0  0
    1.5000    0.0000    0.0000 C   0  0  0  0  0  0  0  0  0  0  0  0
    0.7500   -1.2990    0.0000 C   0  0  0  0  0  0  0  0  0  0  0  0
   -0.7500   -1.2990    0.0000 C   0  0  0  0  0  0  0  0  0  0  0  0
   -1.5000   -2.5981    0.0000 N   0  0  0  0  0  0  0  0  0  0  0  0
   -3.0000   -2.5981    0.0000 C   0  0  0  0  0  0  0  0  0  0  0  0
   -3.7500   -3.8971    0.0000 C   0  0  0  0  0  0  0  0  0  0  0  0
   -3.0000   -5.1962    0.0000 N   0  0  0  0  0  0  0  0  0  0  0  0
   -3.7500   -6.4952    0.0000 C   0  0  0  0  0  0  0  0  0  0  0  0
   -5.2500   -6.4952    0.0000 C   0  0  0  0  0  0  0  0  0  0  0  0
   -6.0000   -7.7942    0.0000 C   0  0  0  0  0  0  0  0  0  0  0  0
   -5.2500   -9.0933    0.0000 N   0  0  0  0  0  0  0  0  0  0  0  0
   -6.0000  -10.3923    0.0000 C   0  0  0  0  0  0  0  0  0  0  0  0
   -3.7500   -9.0933    0.0000 C   0  0  0  0  0  0  0  0  0  0  0  0
   -3.0000   -7.7942    0.0000 C   0  0  0  0  0  0  0  0  0  0  0  0
   -1.5000   -5.1962    0.0000 C   0  0  0  0  0  0  0  0  0  0  0  0
   -0.7500   -3.8971    0.0000 C   0  0  0  0  0  0  0  0  0  0  0  0
   -1.5000    0.0000    0.0000 C   0  0  0  0  0  0  0  0  0  0  0  0
   -0.7500    1.2990    0.0000 C   0  0  0  0  0  0  0  0  0  0  0  0
    0.7500    1.2990    0.0000 C   0  0  0  0  0  0  0  0  0  0  0  0
    1.5000    2.5981    0.0000 N   0  0  0  0  0  0  0  0  0  0  0  0
    3.0000    2.5981    0.0000 C   0  0  0  0  0  0  0  0  0  0  0  0
    3.7500    1.2990    0.0000 N   0  0  0  0  0  0  0  0  0  0  0  0
    5.2500    1.2990    0.0000 C   0  0  0  0  0  0  0  0  0  0  0  0
    6.0000    2.5981    0.0000 C   0  0  0  0  0  0  0  0  0  0  0  0
    7.5000    2.5981    0.0000 Cl  0  0  0  0  0  0  0  0  0  0  0  0
    5.2500    3.8971    0.0000 C   0  0  0  0  0  0  0  0  0  0  0  0
    6.0000    5.1962    0.0000 N   0  0  0  0  0  0  0  0  0  0  0  0
    5.2500    6.4952    0.0000 C   0  0  0  0  0  0  0  0  0  0  0  0
    3.7500    6.4952    0.0000 C   0  0  0  0  0  0  0  0  0  0  0  0
    3.0000    7.7942    0.0000 C   0  0  0  0  0  0  0  0  0  0  0  0
    3.7500    9.0933    0.0000 C   0  0  0  0  0  0  0  0  0  0  0  0
    5.2500    9.0933    0.0000 C   0  0  0  0  0  0  0  0  0  0  0  0
    6.0000    7.7942    0.0000 C   0  0  0  0  0  0  0  0  0  0  0  0
    7.5000    7.7942    0.0000 P   0  0  0  0  0  0  0  0  0  0  0  0
    7.5000    6.2942    0.0000 C   0  0  0  0  0  0  0  0  0  0  0  0
    7.5000    9.2942    0.0000 C   0  0  0  0  0  0  0  0  0  0  0  0
    9.0000    7.7942    0.0000 O   0  0  0  0  0  0  0  0  0  0  0  0
    3.7500    3.8971    0.0000 N   0  0  0  0  0  0  0  0  0  0  0  0
  1  2  1  0
  2  3  1  0
  3  4  2  0
  4  5  1  0
  5  6  1  0
  6  7  1  0
  7  8  1  0
  8  9  1  0
  9 10  1  0
 10 11  1  0
 11 12  1  0
 12 13  1  0
 13 14  1  0
 13 15  1  0
 15 16  1  0
  9 17  1  0
 17 18  1  0
  5 19  2  0
 19 20  1  0
 20 21  2  0
 21 22  1  0
 22 23  1  0
 23 24  2  0
 24 25  1  0
 25 26  2  0
 26 27  1  0
 26 28  1  0
 28 29  1  0
 29 30  1  0
 30 31  2  0
 31 32  1  0
 32 33  2  0
 33 34  1  0
 34 35  2  0
 35 36  1  0
 36 37  1  0
 36 38  1  0
 36 39  2  0
 28 40  2  0
 21  3  1  0
 40 23  1  0
 18  6  1  0
 35 30  1  0
 16 10  1  0
M  END
>  <Compound_ID>  (105) 
CHEMBL3824327

>  <Molecule Name>  (105) 
nan

>  <Molecular Weight>  (105) 
584.11

>  <AlogP>  (105) 
5.09

>  <Smiles>  (105) 
COc1cc(N2CCN(C3CCN(C)CC3)CC2)ccc1Nc1ncc(Cl)c(Nc2ccccc2P(C)(C)=O)n1

>  <Standard Type>  (105) 
IC50

>  <Standard Relation>  (105) 
'='

>  <Standard Units>  (105) 
nM

>  <Standard Value>  (105) 
0.28

>  <Assay ChEMBL ID>  (105) 
CHEMBL3824709

>  <Assay Description>  (105) 
Inhibition of human ALK using poly[Glu:Tyr] (4:1) as substrate and [gamma-33P]ATP measured after 1 hr

>  <BAO Format ID>  (105) 
BAO_0000357

>  <BAO Label>  (105) 
single protein format

>  <Assay Organism>  (105) 
Homo sapiens

>  <Target ChEMBL ID>  (105) 
CHEMBL4247

>  <Target Name>  (105) 
ALK tyrosine kinase receptor

>  <Target Organism>  (105) 
Homo sapiens

>  <Target Type>  (105) 
SINGLE PROTEIN

>  <Document ChEMBL ID>  (105) 
CHEMBL3822358

>  <Source Description>  (105) 
Scientific Literature

>  <Document Journal>  (105) 
J Med Chem

>  <Document Year>  (105) 
2016.0

>  <Active>  (105) 
1.0

>  <bits>  (105) 
<rdkit.DataStructs.cDataStructs.ExplicitBitVect object at 0x000002422F1E3290>

>  <Group>  (105) 
G2

$$$$

     RDKit          2D

 32 36  0  0  0  0  0  0  0  0999 V2000
    2.6491   -3.5623    0.0000 C   0  0  0  0  0  0  0  0  0  0  0  0
    1.5000   -2.5981    0.0000 C   0  0  0  0  0  0  0  0  0  0  0  0
    2.6491   -1.6339    0.0000 C   0  0  0  0  0  0  0  0  0  0  0  0
    0.7500   -1.2990    0.0000 C   0  0  0  0  0  0  0  0  0  0  0  0
    1.5000    0.0000    0.0000 C   0  0  0  0  0  0  0  0  0  0  0  0
    0.7500    1.2990    0.0000 C   0  0  0  0  0  0  0  0  0  0  0  0
    1.5000    2.5981    0.0000 O   0  0  0  0  0  0  0  0  0  0  0  0
    3.0000    2.5981    0.0000 C   0  0  0  0  0  0  0  0  0  0  0  0
    3.7500    1.2990    0.0000 C   0  0  0  0  0  0  0  0  0  0  0  0
    5.2500    1.2990    0.0000 C   0  0  0  0  0  0  0  0  0  0  0  0
    6.0000    2.5981    0.0000 N   0  0  0  0  0  0  0  0  0  0  0  0
    7.5000    2.5981    0.0000 C   0  0  0  0  0  0  0  0  0  0  0  0
    8.2500    1.2990    0.0000 C   0  0  0  0  0  0  0  0  0  0  0  0
    9.7500    1.2990    0.0000 F   0  0  0  0  0  0  0  0  0  0  0  0
    5.2500    3.8971    0.0000 C   0  0  0  0  0  0  0  0  0  0  0  0
    3.7500    3.8971    0.0000 C   0  0  0  0  0  0  0  0  0  0  0  0
   -0.7500    1.2990    0.0000 C   0  0  0  0  0  0  0  0  0  0  0  0
   -1.5000    0.0000    0.0000 C   0  0  0  0  0  0  0  0  0  0  0  0
   -0.7500   -1.2990    0.0000 C   0  0  0  0  0  0  0  0  0  0  0  0
   -1.5000   -2.5981    0.0000 C   0  0  0  0  0  0  0  0  0  0  0  0
   -3.0000   -2.5981    0.0000 O   0  0  0  0  0  0  0  0  0  0  0  0
   -0.7500   -3.8971    0.0000 C   0  0  0  0  0  0  0  0  0  0  0  0
    0.7500   -3.8971    0.0000 C   0  0  0  0  0  0  0  0  0  0  0  0
    1.2135   -5.3237    0.0000 N   0  0  0  0  0  0  0  0  0  0  0  0
    0.0000   -6.2054    0.0000 C   0  0  0  0  0  0  0  0  0  0  0  0
   -0.1568   -7.6972    0.0000 C   0  0  0  0  0  0  0  0  0  0  0  0
   -1.5271   -8.3073    0.0000 C   0  0  0  0  0  0  0  0  0  0  0  0
   -1.6839   -9.7990    0.0000 C   0  0  0  0  0  0  0  0  0  0  0  0
   -1.8407  -11.2908    0.0000 N   0  0  0  0  0  0  0  0  0  0  0  0
   -2.7406   -7.4256    0.0000 C   0  0  0  0  0  0  0  0  0  0  0  0
   -2.5838   -5.9338    0.0000 C   0  0  0  0  0  0  0  0  0  0  0  0
   -1.2135   -5.3237    0.0000 C   0  0  0  0  0  0  0  0  0  0  0  0
  1  2  1  0
  2  3  1  0
  2  4  1  0
  4  5  2  0
  5  6  1  0
  6  7  1  0
  7  8  1  0
  8  9  1  0
  9 10  1  0
 10 11  1  0
 11 12  1  0
 12 13  1  0
 13 14  1  0
 11 15  1  0
 15 16  1  0
  6 17  2  0
 17 18  1  0
 18 19  2  0
 19 20  1  0
 20 21  2  0
 20 22  1  0
 22 23  2  0
 23 24  1  0
 24 25  1  0
 25 26  2  0
 26 27  1  0
 27 28  1  0
 28 29  3  0
 27 30  2  0
 30 31  1  0
 31 32  2  0
 23  2  1  0
 32 25  1  0
 19  4  1  0
 32 22  1  0
 16  8  1  0
M  END
>  <Compound_ID>  (106) 
CHEMBL3924288

>  <Molecule Name>  (106) 
nan

>  <Molecular Weight>  (106) 
431.51

>  <AlogP>  (106) 
4.72

>  <Smiles>  (106) 
CC1(C)c2cc(OC3CCN(CCF)CC3)ccc2C(=O)c2c1[nH]c1cc(C#N)ccc21

>  <Standard Type>  (106) 
IC50

>  <Standard Relation>  (106) 
'='

>  <Standard Units>  (106) 
nM

>  <Standard Value>  (106) 
3.461

>  <Assay ChEMBL ID>  (106) 
CHEMBL3887074

>  <Assay Description>  (106) 
Inhibition Assay: ALK-inhibiting activity was measured by following an activity of inhibiting phosphorylation by biotinylated peptide (EGPWLEEEEEAYGWMDF). For the detection of phosphorylation of the biotinylated peptide, time-resolved fluorescence measurement was performed using an anti-phosphorylated tyrosine antibody labeled with europium cryptate and streptavidin conjugated to XL665, i.e., an allophycocyanin derivative.

>  <BAO Format ID>  (106) 
BAO_0000357

>  <BAO Label>  (106) 
single protein format

>  <Assay Organism>  (106) 
Homo sapiens

>  <Target ChEMBL ID>  (106) 
CHEMBL4247

>  <Target Name>  (106) 
ALK tyrosine kinase receptor

>  <Target Organism>  (106) 
Homo sapiens

>  <Target Type>  (106) 
SINGLE PROTEIN

>  <Document ChEMBL ID>  (106) 
CHEMBL3886150

>  <Source Description>  (106) 
BindingDB Database

>  <Document Journal>  (106) 
nan

>  <Document Year>  (106) 
2015.0

>  <Active>  (106) 
1.0

>  <bits>  (106) 
<rdkit.DataStructs.cDataStructs.ExplicitBitVect object at 0x000002422F1E1850>

>  <Group>  (106) 
G2

$$$$

     RDKit          2D

 34 39  0  0  0  0  0  0  0  0999 V2000
    3.6390   11.1996    0.0000 C   0  0  0  0  0  0  0  0  0  0  0  0
    3.1755    9.7730    0.0000 N   0  0  0  0  0  0  0  0  0  0  0  0
    4.1791    8.6583    0.0000 C   0  0  0  0  0  0  0  0  0  0  0  0
    3.7156    7.2317    0.0000 C   0  0  0  0  0  0  0  0  0  0  0  0
    2.2484    6.9199    0.0000 N   0  0  0  0  0  0  0  0  0  0  0  0
    1.7849    5.4933    0.0000 C   0  0  0  0  0  0  0  0  0  0  0  0
    0.3177    5.1814    0.0000 C   0  0  0  0  0  0  0  0  0  0  0  0
   -0.1459    3.7548    0.0000 C   0  0  0  0  0  0  0  0  0  0  0  0
    0.8578    2.6401    0.0000 C   0  0  0  0  0  0  0  0  0  0  0  0
    0.3943    1.2135    0.0000 C   0  0  0  0  0  0  0  0  0  0  0  0
    1.2760    0.0000    0.0000 N   0  0  0  0  0  0  0  0  0  0  0  0
    0.3943   -1.2135    0.0000 C   0  0  0  0  0  0  0  0  0  0  0  0
    0.7062   -2.6807    0.0000 C   0  0  0  0  0  0  0  0  0  0  0  0
    2.1328   -3.1443    0.0000 N   0  0  0  0  0  0  0  0  0  0  0  0
    2.4446   -4.6115    0.0000 C   0  0  0  0  0  0  0  0  0  0  0  0
    3.8149   -5.2216    0.0000 C   0  0  0  0  0  0  0  0  0  0  0  0
    5.1140   -4.4716    0.0000 C   0  0  0  0  0  0  0  0  0  0  0  0
    6.4130   -5.2216    0.0000 N   0  0  0  0  0  0  0  0  0  0  0  0
    5.1140   -2.9716    0.0000 O   0  0  0  0  0  0  0  0  0  0  0  0
    3.6581   -6.7134    0.0000 C   0  0  0  0  0  0  0  0  0  0  0  0
    2.6544   -7.8281    0.0000 C   0  0  0  0  0  0  0  0  0  0  0  0
    1.2841   -7.2180    0.0000 C   0  0  0  0  0  0  0  0  0  0  0  0
    1.4409   -5.7262    0.0000 C   0  0  0  0  0  0  0  0  0  0  0  0
    2.9081   -5.4143    0.0000 C   0  0  0  0  0  0  0  0  0  0  0  0
   -0.4086   -3.6844    0.0000 C   0  0  0  0  0  0  0  0  0  0  0  0
   -0.0967   -5.1517    0.0000 Br  0  0  0  0  0  0  0  0  0  0  0  0
   -1.8351   -3.2209    0.0000 C   0  0  0  0  0  0  0  0  0  0  0  0
   -2.1470   -1.7537    0.0000 N   0  0  0  0  0  0  0  0  0  0  0  0
   -1.0323   -0.7500    0.0000 C   0  0  0  0  0  0  0  0  0  0  0  0
   -1.0323    0.7500    0.0000 N   0  0  0  0  0  0  0  0  0  0  0  0
    2.3250    2.9520    0.0000 C   0  0  0  0  0  0  0  0  0  0  0  0
    2.7886    4.3786    0.0000 C   0  0  0  0  0  0  0  0  0  0  0  0
    1.2447    8.0346    0.0000 C   0  0  0  0  0  0  0  0  0  0  0  0
    1.7082    9.4612    0.0000 C   0  0  0  0  0  0  0  0  0  0  0  0
  1  2  1  0
  2  3  1  0
  3  4  1  0
  4  5  1  0
  5  6  1  0
  6  7  2  0
  7  8  1  0
  8  9  2  0
  9 10  1  0
 10 11  2  0
 11 12  1  0
 12 13  2  0
 13 14  1  0
 15 14  1  1
 15 16  1  0
 16 17  1  1
 17 18  1  0
 17 19  2  0
 16 20  1  0
 20 21  1  6
 21 22  2  0
 23 22  1  6
 23 24  1  0
 13 25  1  0
 25 26  1  0
 25 27  2  0
 27 28  1  0
 28 29  2  0
 29 30  1  0
  9 31  1  0
 31 32  2  0
  5 33  1  0
 33 34  1  0
 34  2  1  0
 32  6  1  0
 30 10  1  0
 29 12  1  0
 23 15  1  0
 24 20  1  0
M  END
>  <Compound_ID>  (107) 
CHEMBL3218861

>  <Molecule Name>  (107) 
nan

>  <Molecular Weight>  (107) 
522.45

>  <AlogP>  (107) 
3.23

>  <Smiles>  (107) 
CN1CCN(c2ccc(-c3nc4c(N[C@H]5[C@@H](C(N)=O)[C@@H]6C=C[C@H]5C6)c(Br)cnc4[nH]3)cc2)CC1

>  <Standard Type>  (107) 
IC50

>  <Standard Relation>  (107) 
'='

>  <Standard Units>  (107) 
nM

>  <Standard Value>  (107) 
2.7

>  <Assay ChEMBL ID>  (107) 
CHEMBL3226250

>  <Assay Description>  (107) 
Inhibition of ALK (unknown origin)

>  <BAO Format ID>  (107) 
BAO_0000357

>  <BAO Label>  (107) 
single protein format

>  <Assay Organism>  (107) 
Homo sapiens

>  <Target ChEMBL ID>  (107) 
CHEMBL4247

>  <Target Name>  (107) 
ALK tyrosine kinase receptor

>  <Target Organism>  (107) 
Homo sapiens

>  <Target Type>  (107) 
SINGLE PROTEIN

>  <Document ChEMBL ID>  (107) 
CHEMBL3217622

>  <Source Description>  (107) 
Scientific Literature

>  <Document Journal>  (107) 
Medchemcomm

>  <Document Year>  (107) 
2012.0

>  <Active>  (107) 
1.0

>  <bits>  (107) 
<rdkit.DataStructs.cDataStructs.ExplicitBitVect object at 0x000002422F1E2570>

>  <Group>  (107) 
G2

$$$$

     RDKit          2D

 32 35  0  0  0  0  0  0  0  0999 V2000
    2.6491   -3.5623    0.0000 C   0  0  0  0  0  0  0  0  0  0  0  0
    1.5000   -2.5981    0.0000 C   0  0  0  0  0  0  0  0  0  0  0  0
    2.6491   -1.6339    0.0000 C   0  0  0  0  0  0  0  0  0  0  0  0
    0.7500   -1.2990    0.0000 C   0  0  0  0  0  0  0  0  0  0  0  0
    1.5000    0.0000    0.0000 C   0  0  0  0  0  0  0  0  0  0  0  0
    0.7500    1.2990    0.0000 C   0  0  0  0  0  0  0  0  0  0  0  0
    1.5000    2.5981    0.0000 O   0  0  0  0  0  0  0  0  0  0  0  0
    3.0000    2.5981    0.0000 C   0  0  0  0  0  0  0  0  0  0  0  0
    3.7500    3.8971    0.0000 C   0  0  0  0  0  0  0  0  0  0  0  0
    3.0000    5.1962    0.0000 O   0  0  0  0  0  0  0  0  0  0  0  0
    5.2500    3.8971    0.0000 N   0  0  0  0  0  0  0  0  0  0  0  0
    6.0000    5.1962    0.0000 C   0  0  0  0  0  0  0  0  0  0  0  0
    7.5000    5.1962    0.0000 C   0  0  0  0  0  0  0  0  0  0  0  0
    8.2500    3.8971    0.0000 O   0  0  0  0  0  0  0  0  0  0  0  0
    8.2500    6.4952    0.0000 C   0  0  0  0  0  0  0  0  0  0  0  0
    9.7500    6.4952    0.0000 O   0  0  0  0  0  0  0  0  0  0  0  0
   -0.7500    1.2990    0.0000 C   0  0  0  0  0  0  0  0  0  0  0  0
   -1.5000    0.0000    0.0000 C   0  0  0  0  0  0  0  0  0  0  0  0
   -0.7500   -1.2990    0.0000 C   0  0  0  0  0  0  0  0  0  0  0  0
   -1.5000   -2.5981    0.0000 C   0  0  0  0  0  0  0  0  0  0  0  0
   -3.0000   -2.5981    0.0000 O   0  0  0  0  0  0  0  0  0  0  0  0
   -0.7500   -3.8971    0.0000 C   0  0  0  0  0  0  0  0  0  0  0  0
    0.7500   -3.8971    0.0000 C   0  0  0  0  0  0  0  0  0  0  0  0
    1.2135   -5.3237    0.0000 N   0  0  0  0  0  0  0  0  0  0  0  0
    0.0000   -6.2054    0.0000 C   0  0  0  0  0  0  0  0  0  0  0  0
   -0.1568   -7.6972    0.0000 C   0  0  0  0  0  0  0  0  0  0  0  0
   -1.5271   -8.3073    0.0000 C   0  0  0  0  0  0  0  0  0  0  0  0
   -1.6839   -9.7990    0.0000 C   0  0  0  0  0  0  0  0  0  0  0  0
   -1.8407  -11.2908    0.0000 N   0  0  0  0  0  0  0  0  0  0  0  0
   -2.7406   -7.4256    0.0000 C   0  0  0  0  0  0  0  0  0  0  0  0
   -2.5838   -5.9338    0.0000 C   0  0  0  0  0  0  0  0  0  0  0  0
   -1.2135   -5.3237    0.0000 C   0  0  0  0  0  0  0  0  0  0  0  0
  1  2  1  0
  2  3  1  0
  2  4  1  0
  4  5  2  0
  5  6  1  0
  6  7  1  0
  7  8  1  0
  8  9  1  0
  9 10  2  0
  9 11  1  0
 11 12  1  0
 12 13  1  0
 13 14  1  0
 13 15  1  0
 15 16  1  0
  6 17  2  0
 17 18  1  0
 18 19  2  0
 19 20  1  0
 20 21  2  0
 20 22  1  0
 22 23  2  0
 23 24  1  0
 24 25  1  0
 25 26  2  0
 26 27  1  0
 27 28  1  0
 28 29  3  0
 27 30  2  0
 30 31  1  0
 31 32  2  0
 23  2  1  0
 32 25  1  0
 19  4  1  0
 32 22  1  0
M  END
>  <Compound_ID>  (108) 
CHEMBL3969437

>  <Molecule Name>  (108) 
nan

>  <Molecular Weight>  (108) 
433.46

>  <AlogP>  (108) 
1.76

>  <Smiles>  (108) 
CC1(C)c2cc(OCC(=O)NCC(O)CO)ccc2C(=O)c2c1[nH]c1cc(C#N)ccc21

>  <Standard Type>  (108) 
IC50

>  <Standard Relation>  (108) 
'='

>  <Standard Units>  (108) 
nM

>  <Standard Value>  (108) 
17.5

>  <Assay ChEMBL ID>  (108) 
CHEMBL3887074

>  <Assay Description>  (108) 
Inhibition Assay: ALK-inhibiting activity was measured by following an activity of inhibiting phosphorylation by biotinylated peptide (EGPWLEEEEEAYGWMDF). For the detection of phosphorylation of the biotinylated peptide, time-resolved fluorescence measurement was performed using an anti-phosphorylated tyrosine antibody labeled with europium cryptate and streptavidin conjugated to XL665, i.e., an allophycocyanin derivative.

>  <BAO Format ID>  (108) 
BAO_0000357

>  <BAO Label>  (108) 
single protein format

>  <Assay Organism>  (108) 
Homo sapiens

>  <Target ChEMBL ID>  (108) 
CHEMBL4247

>  <Target Name>  (108) 
ALK tyrosine kinase receptor

>  <Target Organism>  (108) 
Homo sapiens

>  <Target Type>  (108) 
SINGLE PROTEIN

>  <Document ChEMBL ID>  (108) 
CHEMBL3886150

>  <Source Description>  (108) 
BindingDB Database

>  <Document Journal>  (108) 
nan

>  <Document Year>  (108) 
2015.0

>  <Active>  (108) 
1.0

>  <bits>  (108) 
<rdkit.DataStructs.cDataStructs.ExplicitBitVect object at 0x000002422F1E1CB0>

>  <Group>  (108) 
G2

$$$$

     RDKit          2D

 43 47  0  0  0  0  0  0  0  0999 V2000
    3.7500   -1.2990    0.0000 C   0  0  0  0  0  0  0  0  0  0  0  0
    3.0000    0.0000    0.0000 O   0  0  0  0  0  0  0  0  0  0  0  0
    1.5000    0.0000    0.0000 C   0  0  0  0  0  0  0  0  0  0  0  0
    0.7500   -1.2990    0.0000 C   0  0  0  0  0  0  0  0  0  0  0  0
   -0.7500   -1.2990    0.0000 C   0  0  0  0  0  0  0  0  0  0  0  0
   -1.5000   -2.5981    0.0000 N   0  0  0  0  0  0  0  0  0  0  0  0
   -3.0000   -2.5981    0.0000 C   0  0  0  0  0  0  0  0  0  0  0  0
   -3.7500   -3.8971    0.0000 C   0  0  0  0  0  0  0  0  0  0  0  0
   -3.0000   -5.1962    0.0000 N   0  0  0  0  0  0  0  0  0  0  0  0
   -3.7500   -6.4952    0.0000 C   0  0  0  0  0  0  0  0  0  0  0  0
   -5.2500   -6.4952    0.0000 C   0  0  0  0  0  0  0  0  0  0  0  0
   -3.0000   -7.7942    0.0000 O   0  0  0  0  0  0  0  0  0  0  0  0
   -1.5000   -5.1962    0.0000 C   0  0  0  0  0  0  0  0  0  0  0  0
   -0.7500   -3.8971    0.0000 C   0  0  0  0  0  0  0  0  0  0  0  0
   -1.5000    0.0000    0.0000 C   0  0  0  0  0  0  0  0  0  0  0  0
   -0.7500    1.2990    0.0000 C   0  0  0  0  0  0  0  0  0  0  0  0
    0.7500    1.2990    0.0000 C   0  0  0  0  0  0  0  0  0  0  0  0
    1.5000    2.5981    0.0000 N   0  0  0  0  0  0  0  0  0  0  0  0
    3.0000    2.5981    0.0000 C   0  0  0  0  0  0  0  0  0  0  0  0
    3.7500    1.2990    0.0000 N   0  0  0  0  0  0  0  0  0  0  0  0
    5.2500    1.2990    0.0000 C   0  0  0  0  0  0  0  0  0  0  0  0
    6.0000    2.5981    0.0000 C   0  0  0  0  0  0  0  0  0  0  0  0
    7.5000    2.5981    0.0000 Br  0  0  0  0  0  0  0  0  0  0  0  0
    5.2500    3.8971    0.0000 C   0  0  0  0  0  0  0  0  0  0  0  0
    6.0000    5.1962    0.0000 N   0  0  0  0  0  0  0  0  0  0  0  0
    5.2500    6.4952    0.0000 C   0  0  0  0  0  0  0  0  0  0  0  0
    6.0000    7.7942    0.0000 C   0  0  0  0  0  0  0  0  0  0  0  0
    5.2500    9.0933    0.0000 C   0  0  0  0  0  0  0  0  0  0  0  0
    3.7500    9.0933    0.0000 C   0  0  0  0  0  0  0  0  0  0  0  0
    3.0000   10.3923    0.0000 N   0  0  0  0  0  0  0  0  0  0  0  0
    3.7500   11.6913    0.0000 C   0  0  0  0  0  0  0  0  0  0  0  0
    3.0000   12.9904    0.0000 C   0  0  0  0  0  0  0  0  0  0  0  0
    1.5000   12.9904    0.0000 N   0  0  0  0  0  0  0  0  0  0  0  0
    0.7500   14.2894    0.0000 C   0  0  0  0  0  0  0  0  0  0  0  0
    1.5000   15.5885    0.0000 C   0  0  0  0  0  0  0  0  0  0  0  0
   -0.7500   14.2894    0.0000 O   0  0  0  0  0  0  0  0  0  0  0  0
    0.7500   11.6913    0.0000 C   0  0  0  0  0  0  0  0  0  0  0  0
    1.5000   10.3923    0.0000 C   0  0  0  0  0  0  0  0  0  0  0  0
    3.0000    7.7942    0.0000 C   0  0  0  0  0  0  0  0  0  0  0  0
    3.7500    6.4952    0.0000 C   0  0  0  0  0  0  0  0  0  0  0  0
    3.0000    5.1962    0.0000 O   0  0  0  0  0  0  0  0  0  0  0  0
    1.5000    5.1962    0.0000 C   0  0  0  0  0  0  0  0  0  0  0  0
    3.7500    3.8971    0.0000 N   0  0  0  0  0  0  0  0  0  0  0  0
  1  2  1  0
  2  3  1  0
  3  4  2  0
  4  5  1  0
  5  6  1  0
  6  7  1  0
  7  8  1  0
  8  9  1  0
  9 10  1  0
 10 11  1  0
 10 12  2  0
  9 13  1  0
 13 14  1  0
  5 15  2  0
 15 16  1  0
 16 17  2  0
 17 18  1  0
 18 19  1  0
 19 20  2  0
 20 21  1  0
 21 22  2  0
 22 23  1  0
 22 24  1  0
 24 25  1  0
 25 26  1  0
 26 27  2  0
 27 28  1  0
 28 29  2  0
 29 30  1  0
 30 31  1  0
 31 32  1  0
 32 33  1  0
 33 34  1  0
 34 35  1  0
 34 36  2  0
 33 37  1  0
 37 38  1  0
 29 39  1  0
 39 40  2  0
 40 41  1  0
 41 42  1  0
 24 43  2  0
 17  3  1  0
 43 19  1  0
 14  6  1  0
 40 26  1  0
 38 30  1  0
M  END
>  <Compound_ID>  (109) 
CHEMBL3982727

>  <Molecule Name>  (109) 
nan

>  <Molecular Weight>  (109) 
653.58

>  <AlogP>  (109) 
4.08

>  <Smiles>  (109) 
COc1cc(N2CCN(C(C)=O)CC2)ccc1Nc1ncc(Br)c(Nc2ccc(N3CCN(C(C)=O)CC3)cc2OC)n1

>  <Standard Type>  (109) 
IC50

>  <Standard Relation>  (109) 
'='

>  <Standard Units>  (109) 
nM

>  <Standard Value>  (109) 
86.0

>  <Assay ChEMBL ID>  (109) 
CHEMBL3887133

>  <Assay Description>  (109) 
Homogeneous Time-resolved fluorescence (HTRF) Assay: In order to measure the inhibitory activity against ALK, a Grainer 96-well round type bottom plate was added with the compounds (2 μl) prepared in Examples 1 to 89, and mixed with ALK enzyme (1 ul) and a peptide substrate (2 μl) with biotin attached thereto for 15 minutes and cultured thereafter. Here, ATP solution (5 μl) was added thereto and kinase reaction was performed at room temperature for 30 minutes. XL 665 (5 μl), to which Streptavidin dissolved in ethylenediaminetetraacetic acid solution was attached, anti-phosphotyrosine antibody (5 μl), to which europium (Eu3+) was attached, were added to a reaction solution to stop the reaction, cultured for 1 hour, and analyzed using Homogeneous Time-resolved fluorescence (HTRF, Cisbio). The result was read by a Wallac Envision 2103 device at the wavelength range of 615/665 nm.

>  <BAO Format ID>  (109) 
BAO_0000357

>  <BAO Label>  (109) 
single protein format

>  <Assay Organism>  (109) 
None

>  <Target ChEMBL ID>  (109) 
CHEMBL4247

>  <Target Name>  (109) 
ALK tyrosine kinase receptor

>  <Target Organism>  (109) 
Homo sapiens

>  <Target Type>  (109) 
SINGLE PROTEIN

>  <Document ChEMBL ID>  (109) 
CHEMBL3886178

>  <Source Description>  (109) 
BindingDB Database

>  <Document Journal>  (109) 
nan

>  <Document Year>  (109) 
2015.0

>  <Active>  (109) 
1.0

>  <bits>  (109) 
<rdkit.DataStructs.cDataStructs.ExplicitBitVect object at 0x000002422F1E18C0>

>  <Group>  (109) 
G2

$$$$

     RDKit          2D

 47 52  0  0  0  0  0  0  0  0999 V2000
    3.7500   -1.2990    0.0000 C   0  0  0  0  0  0  0  0  0  0  0  0
    3.0000    0.0000    0.0000 C   0  0  0  0  0  0  0  0  0  0  0  0
    3.7500    1.2990    0.0000 O   0  0  0  0  0  0  0  0  0  0  0  0
    1.5000    0.0000    0.0000 N   0  0  0  0  0  0  0  0  0  0  0  0
    0.7500   -1.2990    0.0000 C   0  0  0  0  0  0  0  0  0  0  0  0
   -0.7500   -1.2990    0.0000 C   0  0  0  0  0  0  0  0  0  0  0  0
   -1.5000    0.0000    0.0000 N   0  0  0  0  0  0  0  0  0  0  0  0
   -3.0000    0.0000    0.0000 C   0  0  0  0  0  0  0  0  0  0  0  0
   -3.7500    1.2990    0.0000 C   0  0  0  0  0  0  0  0  0  0  0  0
   -5.2500    1.2990    0.0000 C   0  0  0  0  0  0  0  0  0  0  0  0
   -6.0000    0.0000    0.0000 C   0  0  0  0  0  0  0  0  0  0  0  0
   -7.5000    0.0000    0.0000 C   0  0  0  0  0  0  0  0  0  0  0  0
   -8.2500    1.2990    0.0000 C   0  0  0  0  0  0  0  0  0  0  0  0
   -9.7500    1.2990    0.0000 C   0  0  0  0  0  0  0  0  0  0  0  0
  -10.5000    2.5981    0.0000 O   0  0  0  0  0  0  0  0  0  0  0  0
   -9.7500    3.8971    0.0000 C   0  0  0  0  0  0  0  0  0  0  0  0
   -9.7500    5.3971    0.0000 C   0  0  0  0  0  0  0  0  0  0  0  0
   -8.4510    4.6471    0.0000 C   0  0  0  0  0  0  0  0  0  0  0  0
  -10.5000    0.0000    0.0000 C   0  0  0  0  0  0  0  0  0  0  0  0
  -12.0000    0.0000    0.0000 N   0  0  0  0  0  0  0  0  0  0  0  0
  -12.7500   -1.2990    0.0000 C   0  0  0  0  0  0  0  0  0  0  0  0
  -14.2500   -1.2990    0.0000 N   0  0  0  0  0  0  0  0  0  0  0  0
  -15.0000   -2.5981    0.0000 C   0  0  0  0  0  0  0  0  0  0  0  0
  -14.2500   -3.8971    0.0000 C   0  0  0  0  0  0  0  0  0  0  0  0
  -15.0000   -5.1962    0.0000 Cl  0  0  0  0  0  0  0  0  0  0  0  0
  -12.7500   -3.8971    0.0000 C   0  0  0  0  0  0  0  0  0  0  0  0
  -12.0000   -5.1962    0.0000 N   0  0  0  0  0  0  0  0  0  0  0  0
  -10.5000   -5.1962    0.0000 C   0  0  0  0  0  0  0  0  0  0  0  0
   -9.6183   -3.9826    0.0000 C   0  0  0  0  0  0  0  0  0  0  0  0
   -8.1917   -4.4462    0.0000 N   0  0  0  0  0  0  0  0  0  0  0  0
   -6.9782   -3.5645    0.0000 C   0  0  0  0  0  0  0  0  0  0  0  0
   -8.1917   -5.9462    0.0000 N   0  0  0  0  0  0  0  0  0  0  0  0
   -9.6183   -6.4097    0.0000 C   0  0  0  0  0  0  0  0  0  0  0  0
  -10.0818   -7.8363    0.0000 S   0  0  0  0  0  0  0  0  0  0  0  0
  -11.5084   -7.3727    0.0000 O   0  0  0  0  0  0  0  0  0  0  0  0
   -8.6553   -8.2998    0.0000 O   0  0  0  0  0  0  0  0  0  0  0  0
  -10.5454   -9.2628    0.0000 C   0  0  0  0  0  0  0  0  0  0  0  0
  -12.0126   -9.5747    0.0000 C   0  0  0  0  0  0  0  0  0  0  0  0
   -9.5417  -10.3776    0.0000 C   0  0  0  0  0  0  0  0  0  0  0  0
  -12.0000   -2.5981    0.0000 N   0  0  0  0  0  0  0  0  0  0  0  0
   -9.7500   -1.2990    0.0000 C   0  0  0  0  0  0  0  0  0  0  0  0
   -8.2500   -1.2990    0.0000 C   0  0  0  0  0  0  0  0  0  0  0  0
   -7.5000   -2.5981    0.0000 C   0  0  0  0  0  0  0  0  0  0  0  0
   -5.2500   -1.2990    0.0000 C   0  0  0  0  0  0  0  0  0  0  0  0
   -3.7500   -1.2990    0.0000 C   0  0  0  0  0  0  0  0  0  0  0  0
   -0.7500    1.2990    0.0000 C   0  0  0  0  0  0  0  0  0  0  0  0
    0.7500    1.2990    0.0000 C   0  0  0  0  0  0  0  0  0  0  0  0
  1  2  1  0
  2  3  2  0
  2  4  1  0
  4  5  1  0
  5  6  1  0
  6  7  1  0
  8  7  1  6
  8  9  1  0
  9 10  1  0
 10 11  1  0
 11 12  1  1
 12 13  2  0
 13 14  1  0
 14 15  1  0
 15 16  1  0
 16 17  1  0
 17 18  1  0
 14 19  2  0
 19 20  1  0
 20 21  1  0
 21 22  2  0
 22 23  1  0
 23 24  2  0
 24 25  1  0
 24 26  1  0
 26 27  1  0
 27 28  1  0
 28 29  2  0
 29 30  1  0
 30 31  1  0
 30 32  1  0
 32 33  2  0
 33 34  1  0
 34 35  2  0
 34 36  2  0
 34 37  1  0
 37 38  1  0
 37 39  1  0
 26 40  2  0
 19 41  1  0
 41 42  2  0
 42 43  1  0
 11 44  1  0
 44 45  1  0
  7 46  1  0
 46 47  1  0
 47  4  1  0
 45  8  1  0
 42 12  1  0
 18 16  1  0
 40 21  1  0
 33 28  1  0
M  END
>  <Compound_ID>  (110) 
CHEMBL3787658

>  <Molecule Name>  (110) 
nan

>  <Molecular Weight>  (110) 
685.29

>  <AlogP>  (110) 
5.57

>  <Smiles>  (110) 
CC(=O)N1CCN([C@H]2CC[C@H](c3cc(OC4CC4)c(Nc4ncc(Cl)c(Nc5cn(C)nc5S(=O)(=O)C(C)C)n4)cc3C)CC2)CC1

>  <Standard Type>  (110) 
IC50

>  <Standard Relation>  (110) 
'='

>  <Standard Units>  (110) 
nM

>  <Standard Value>  (110) 
7.0

>  <Assay ChEMBL ID>  (110) 
CHEMBL3791910

>  <Assay Description>  (110) 
Inhibition of recombinant human wild type ALK using tyrosine kinase substrate-biotin after 30 mins by HTRF assay

>  <BAO Format ID>  (110) 
BAO_0000357

>  <BAO Label>  (110) 
single protein format

>  <Assay Organism>  (110) 
Homo sapiens

>  <Target ChEMBL ID>  (110) 
CHEMBL4247

>  <Target Name>  (110) 
ALK tyrosine kinase receptor

>  <Target Organism>  (110) 
Homo sapiens

>  <Target Type>  (110) 
SINGLE PROTEIN

>  <Document ChEMBL ID>  (110) 
CHEMBL3785058

>  <Source Description>  (110) 
Scientific Literature

>  <Document Journal>  (110) 
Bioorg Med Chem Lett

>  <Document Year>  (110) 
2016.0

>  <Active>  (110) 
1.0

>  <bits>  (110) 
<rdkit.DataStructs.cDataStructs.ExplicitBitVect object at 0x000002422F1E0970>

>  <Group>  (110) 
G2

$$$$

     RDKit          2D

 38 42  0  0  0  0  0  0  0  0999 V2000
    3.0000    0.0000    0.0000 C   0  0  0  0  0  0  0  0  0  0  0  0
    1.5000    0.0000    0.0000 C   0  0  0  0  0  0  0  0  0  0  0  0
    0.7500   -1.2990    0.0000 C   0  0  0  0  0  0  0  0  0  0  0  0
   -0.7500   -1.2990    0.0000 C   0  0  0  0  0  0  0  0  0  0  0  0
   -1.5000   -2.5981    0.0000 N   0  0  0  0  0  0  0  0  0  0  0  0
   -3.0000   -2.5981    0.0000 C   0  0  0  0  0  0  0  0  0  0  0  0
   -3.7500   -1.2990    0.0000 N   0  0  0  0  0  0  0  0  0  0  0  0
   -5.2500   -1.2990    0.0000 C   0  0  0  0  0  0  0  0  0  0  0  0
   -6.0000   -2.5981    0.0000 N   0  0  0  0  0  0  0  0  0  0  0  0
   -5.2500   -3.8971    0.0000 C   0  0  0  0  0  0  0  0  0  0  0  0
   -6.0000   -5.1962    0.0000 N   0  0  0  0  0  0  0  0  0  0  0  0
   -7.5000   -5.1962    0.0000 C   0  0  0  0  0  0  0  0  0  0  0  0
   -8.3817   -3.9826    0.0000 C   0  0  0  0  0  0  0  0  0  0  0  0
   -9.8083   -4.4462    0.0000 N   0  0  0  0  0  0  0  0  0  0  0  0
  -11.0218   -3.5645    0.0000 C   0  0  0  0  0  0  0  0  0  0  0  0
   -9.8083   -5.9462    0.0000 N   0  0  0  0  0  0  0  0  0  0  0  0
   -8.3817   -6.4097    0.0000 C   0  0  0  0  0  0  0  0  0  0  0  0
   -7.9182   -7.8363    0.0000 S   0  0  0  0  0  0  0  0  0  0  0  0
   -6.4916   -7.3727    0.0000 O   0  0  0  0  0  0  0  0  0  0  0  0
   -9.3447   -8.2998    0.0000 O   0  0  0  0  0  0  0  0  0  0  0  0
   -7.4546   -9.2628    0.0000 C   0  0  0  0  0  0  0  0  0  0  0  0
   -8.4583  -10.3776    0.0000 C   0  0  0  0  0  0  0  0  0  0  0  0
   -5.9874   -9.5747    0.0000 C   0  0  0  0  0  0  0  0  0  0  0  0
   -3.7500   -3.8971    0.0000 N   0  0  0  0  0  0  0  0  0  0  0  0
   -1.5000    0.0000    0.0000 C   0  0  0  0  0  0  0  0  0  0  0  0
   -3.0000    0.0000    0.0000 O   0  0  0  0  0  0  0  0  0  0  0  0
   -3.7500    1.2990    0.0000 C   0  0  0  0  0  0  0  0  0  0  0  0
   -5.0490    2.0490    0.0000 C   0  0  0  0  0  0  0  0  0  0  0  0
   -3.7500    2.7990    0.0000 C   0  0  0  0  0  0  0  0  0  0  0  0
   -0.7500    1.2990    0.0000 C   0  0  0  0  0  0  0  0  0  0  0  0
    0.7500    1.2990    0.0000 C   0  0  0  0  0  0  0  0  0  0  0  0
    1.5000    2.5981    0.0000 C   0  0  0  0  0  0  0  0  0  0  0  0
    3.0000    2.5981    0.0000 C   0  0  0  0  0  0  0  0  0  0  0  0
    3.7500    3.8971    0.0000 C   0  0  0  0  0  0  0  0  0  0  0  0
    3.0000    5.1962    0.0000 N   0  0  0  0  0  0  0  0  0  0  0  0
    3.7500    6.4952    0.0000 C   0  0  0  0  0  0  0  0  0  0  0  0
    1.5000    5.1962    0.0000 C   0  0  0  0  0  0  0  0  0  0  0  0
    0.7500    3.8971    0.0000 C   0  0  0  0  0  0  0  0  0  0  0  0
  1  2  1  0
  2  3  2  0
  3  4  1  0
  4  5  1  0
  5  6  1  0
  6  7  2  0
  7  8  1  0
  8  9  2  0
  9 10  1  0
 10 11  1  0
 11 12  1  0
 12 13  2  0
 13 14  1  0
 14 15  1  0
 14 16  1  0
 16 17  2  0
 17 18  1  0
 18 19  2  0
 18 20  2  0
 18 21  1  0
 21 22  1  0
 21 23  1  0
 10 24  2  0
  4 25  2  0
 25 26  1  0
 26 27  1  0
 27 28  1  0
 28 29  1  0
 25 30  1  0
 30 31  2  0
 31 32  1  0
 32 33  1  0
 33 34  1  0
 34 35  1  0
 35 36  1  0
 35 37  1  0
 37 38  1  0
 31  2  1  0
 38 32  1  0
 24  6  1  0
 29 27  1  0
 17 12  1  0
M  END
>  <Compound_ID>  (111) 
CHEMBL3785304

>  <Molecule Name>  (111) 
nan

>  <Molecular Weight>  (111) 
540.69

>  <AlogP>  (111) 
3.93

>  <Smiles>  (111) 
Cc1cc(Nc2ncnc(Nc3cn(C)nc3S(=O)(=O)C(C)C)n2)c(OC2CC2)cc1C1CCN(C)CC1

>  <Standard Type>  (111) 
IC50

>  <Standard Relation>  (111) 
'='

>  <Standard Units>  (111) 
nM

>  <Standard Value>  (111) 
36.0

>  <Assay ChEMBL ID>  (111) 
CHEMBL3791910

>  <Assay Description>  (111) 
Inhibition of recombinant human wild type ALK using tyrosine kinase substrate-biotin after 30 mins by HTRF assay

>  <BAO Format ID>  (111) 
BAO_0000357

>  <BAO Label>  (111) 
single protein format

>  <Assay Organism>  (111) 
Homo sapiens

>  <Target ChEMBL ID>  (111) 
CHEMBL4247

>  <Target Name>  (111) 
ALK tyrosine kinase receptor

>  <Target Organism>  (111) 
Homo sapiens

>  <Target Type>  (111) 
SINGLE PROTEIN

>  <Document ChEMBL ID>  (111) 
CHEMBL3785058

>  <Source Description>  (111) 
Scientific Literature

>  <Document Journal>  (111) 
Bioorg Med Chem Lett

>  <Document Year>  (111) 
2016.0

>  <Active>  (111) 
1.0

>  <bits>  (111) 
<rdkit.DataStructs.cDataStructs.ExplicitBitVect object at 0x000002422F1E2490>

>  <Group>  (111) 
G2

$$$$

     RDKit          2D

 34 38  0  0  0  0  0  0  0  0999 V2000
    3.7500   -6.4952    0.0000 C   0  0  0  0  0  0  0  0  0  0  0  0
    3.0000   -5.1962    0.0000 O   0  0  0  0  0  0  0  0  0  0  0  0
    1.5000   -5.1962    0.0000 C   0  0  0  0  0  0  0  0  0  0  0  0
    0.7500   -6.4952    0.0000 C   0  0  0  0  0  0  0  0  0  0  0  0
   -0.7500   -6.4952    0.0000 C   0  0  0  0  0  0  0  0  0  0  0  0
   -1.5000   -7.7942    0.0000 C   0  0  0  0  0  0  0  0  0  0  0  0
   -2.6491   -6.8300    0.0000 O   0  0  0  0  0  0  0  0  0  0  0  0
   -0.0905   -8.3073    0.0000 C   0  0  0  0  0  0  0  0  0  0  0  0
    0.1700   -9.7845    0.0000 C   0  0  0  0  0  0  0  0  0  0  0  0
   -0.9791  -10.7487    0.0000 N   0  0  0  0  0  0  0  0  0  0  0  0
   -2.3886  -10.2356    0.0000 C   0  0  0  0  0  0  0  0  0  0  0  0
   -2.6491   -8.7584    0.0000 C   0  0  0  0  0  0  0  0  0  0  0  0
   -4.0586   -8.2454    0.0000 O   0  0  0  0  0  0  0  0  0  0  0  0
   -1.5000   -5.1962    0.0000 C   0  0  0  0  0  0  0  0  0  0  0  0
   -0.7500   -3.8971    0.0000 C   0  0  0  0  0  0  0  0  0  0  0  0
    0.7500   -3.8971    0.0000 C   0  0  0  0  0  0  0  0  0  0  0  0
    1.5000   -2.5981    0.0000 N   0  0  0  0  0  0  0  0  0  0  0  0
    0.7500   -1.2990    0.0000 C   0  0  0  0  0  0  0  0  0  0  0  0
    1.5000    0.0000    0.0000 N   0  0  0  0  0  0  0  0  0  0  0  0
    0.7500    1.2990    0.0000 C   0  0  0  0  0  0  0  0  0  0  0  0
   -0.7500    1.2990    0.0000 C   0  0  0  0  0  0  0  0  0  0  0  0
   -1.7537    2.4138    0.0000 C   0  0  0  0  0  0  0  0  0  0  0  0
   -3.1240    1.8037    0.0000 C   0  0  0  0  0  0  0  0  0  0  0  0
   -2.9672    0.3119    0.0000 C   0  0  0  0  0  0  0  0  0  0  0  0
   -4.0819   -0.6918    0.0000 C   0  0  0  0  0  0  0  0  0  0  0  0
   -5.5085   -0.2283    0.0000 C   0  0  0  0  0  0  0  0  0  0  0  0
   -6.6232   -1.2320    0.0000 C   0  0  0  0  0  0  0  0  0  0  0  0
   -6.3114   -2.6992    0.0000 C   0  0  0  0  0  0  0  0  0  0  0  0
   -4.8848   -3.1627    0.0000 C   0  0  0  0  0  0  0  0  0  0  0  0
   -3.7701   -2.1590    0.0000 C   0  0  0  0  0  0  0  0  0  0  0  0
   -2.3435   -2.6226    0.0000 O   0  0  0  0  0  0  0  0  0  0  0  0
   -2.0316   -4.0898    0.0000 C   0  0  0  0  0  0  0  0  0  0  0  0
   -1.5000    0.0000    0.0000 N   0  0  0  0  0  0  0  0  0  0  0  0
   -0.7500   -1.2990    0.0000 N   0  0  0  0  0  0  0  0  0  0  0  0
  1  2  1  0
  2  3  1  0
  3  4  2  0
  4  5  1  0
  5  6  1  0
  6  7  1  6
  6  8  1  0
  8  9  1  0
  9 10  1  0
 10 11  1  0
 11 12  1  0
 12 13  1  6
  5 14  2  0
 14 15  1  0
 15 16  2  0
 16 17  1  0
 17 18  1  0
 18 19  1  0
 19 20  2  0
 20 21  1  0
 21 22  2  0
 22 23  1  0
 23 24  2  0
 24 25  1  0
 25 26  2  0
 26 27  1  0
 27 28  2  0
 28 29  1  0
 29 30  2  0
 30 31  1  0
 31 32  1  0
 24 33  1  0
 33 34  1  0
 16  3  1  0
 34 18  2  0
 12  6  1  0
 33 21  1  0
 30 25  1  0
M  END
>  <Compound_ID>  (112) 
CHEMBL3398169

>  <Molecule Name>  (112) 
nan

>  <Molecular Weight>  (112) 
461.52

>  <AlogP>  (112) 
2.70

>  <Smiles>  (112) 
COc1cc([C@@]2(O)CCNC[C@@H]2O)ccc1Nc1ncc2ccc(-c3ccccc3OC)n2n1

>  <Standard Type>  (112) 
IC50

>  <Standard Relation>  (112) 
'='

>  <Standard Units>  (112) 
nM

>  <Standard Value>  (112) 
40.0

>  <Assay ChEMBL ID>  (112) 
CHEMBL3398706

>  <Assay Description>  (112) 
Inhibition of ALK (unknown origin) by cellular assay

>  <BAO Format ID>  (112) 
BAO_0000357

>  <BAO Label>  (112) 
single protein format

>  <Assay Organism>  (112) 
Homo sapiens

>  <Target ChEMBL ID>  (112) 
CHEMBL4247

>  <Target Name>  (112) 
ALK tyrosine kinase receptor

>  <Target Organism>  (112) 
Homo sapiens

>  <Target Type>  (112) 
SINGLE PROTEIN

>  <Document ChEMBL ID>  (112) 
CHEMBL3396997

>  <Source Description>  (112) 
Scientific Literature

>  <Document Journal>  (112) 
Bioorg Med Chem Lett

>  <Document Year>  (112) 
2015.0

>  <Active>  (112) 
1.0

>  <bits>  (112) 
<rdkit.DataStructs.cDataStructs.ExplicitBitVect object at 0x000002422F1E2180>

>  <Group>  (112) 
G2

$$$$

     RDKit          2D

 33 37  0  0  0  0  0  0  0  0999 V2000
    2.6491   -3.5623    0.0000 C   0  0  0  0  0  0  0  0  0  0  0  0
    1.5000   -2.5981    0.0000 C   0  0  0  0  0  0  0  0  0  0  0  0
    2.6491   -1.6339    0.0000 C   0  0  0  0  0  0  0  0  0  0  0  0
    0.7500   -1.2990    0.0000 C   0  0  0  0  0  0  0  0  0  0  0  0
    1.5000    0.0000    0.0000 C   0  0  0  0  0  0  0  0  0  0  0  0
    0.7500    1.2990    0.0000 C   0  0  0  0  0  0  0  0  0  0  0  0
    1.5000    2.5981    0.0000 C   0  0  0  0  0  0  0  0  0  0  0  0
    3.0000    2.5981    0.0000 C   0  0  0  0  0  0  0  0  0  0  0  0
    3.7500    1.2990    0.0000 C   0  0  0  0  0  0  0  0  0  0  0  0
    5.2500    1.2990    0.0000 C   0  0  0  0  0  0  0  0  0  0  0  0
    6.0000    2.5981    0.0000 N   0  0  0  0  0  0  0  0  0  0  0  0
    7.5000    2.5981    0.0000 S   0  0  0  0  0  0  0  0  0  0  0  0
    9.0000    2.5981    0.0000 N   0  0  0  0  0  0  0  0  0  0  0  0
    7.5000    4.0981    0.0000 O   0  0  0  0  0  0  0  0  0  0  0  0
    7.5000    1.0981    0.0000 O   0  0  0  0  0  0  0  0  0  0  0  0
    5.2500    3.8971    0.0000 C   0  0  0  0  0  0  0  0  0  0  0  0
    3.7500    3.8971    0.0000 C   0  0  0  0  0  0  0  0  0  0  0  0
   -0.7500    1.2990    0.0000 C   0  0  0  0  0  0  0  0  0  0  0  0
   -1.5000    0.0000    0.0000 C   0  0  0  0  0  0  0  0  0  0  0  0
   -0.7500   -1.2990    0.0000 C   0  0  0  0  0  0  0  0  0  0  0  0
   -1.5000   -2.5981    0.0000 C   0  0  0  0  0  0  0  0  0  0  0  0
   -3.0000   -2.5981    0.0000 O   0  0  0  0  0  0  0  0  0  0  0  0
   -0.7500   -3.8971    0.0000 C   0  0  0  0  0  0  0  0  0  0  0  0
    0.7500   -3.8971    0.0000 C   0  0  0  0  0  0  0  0  0  0  0  0
    1.2135   -5.3237    0.0000 N   0  0  0  0  0  0  0  0  0  0  0  0
    0.0000   -6.2054    0.0000 C   0  0  0  0  0  0  0  0  0  0  0  0
   -0.1568   -7.6972    0.0000 C   0  0  0  0  0  0  0  0  0  0  0  0
   -1.5271   -8.3073    0.0000 C   0  0  0  0  0  0  0  0  0  0  0  0
   -1.6839   -9.7990    0.0000 C   0  0  0  0  0  0  0  0  0  0  0  0
   -1.8407  -11.2908    0.0000 N   0  0  0  0  0  0  0  0  0  0  0  0
   -2.7406   -7.4256    0.0000 C   0  0  0  0  0  0  0  0  0  0  0  0
   -2.5838   -5.9338    0.0000 C   0  0  0  0  0  0  0  0  0  0  0  0
   -1.2135   -5.3237    0.0000 C   0  0  0  0  0  0  0  0  0  0  0  0
  1  2  1  0
  2  3  1  0
  2  4  1  0
  4  5  2  0
  5  6  1  0
  6  7  1  0
  7  8  1  0
  8  9  1  0
  9 10  1  0
 10 11  1  0
 11 12  1  0
 12 13  1  0
 12 14  2  0
 12 15  2  0
 11 16  1  0
 16 17  1  0
  6 18  2  0
 18 19  1  0
 19 20  2  0
 20 21  1  0
 21 22  2  0
 21 23  1  0
 23 24  2  0
 24 25  1  0
 25 26  1  0
 26 27  2  0
 27 28  1  0
 28 29  1  0
 29 30  3  0
 28 31  2  0
 31 32  1  0
 32 33  2  0
 24  2  1  0
 33 26  1  0
 20  4  1  0
 33 23  1  0
 17  8  1  0
M  END
>  <Compound_ID>  (113) 
CHEMBL3939371

>  <Molecule Name>  (113) 
nan

>  <Molecular Weight>  (113) 
462.58

>  <AlogP>  (113) 
3.37

>  <Smiles>  (113) 
CC1(C)c2cc(CC3CCN(S(N)(=O)=O)CC3)ccc2C(=O)c2c1[nH]c1cc(C#N)ccc21

>  <Standard Type>  (113) 
IC50

>  <Standard Relation>  (113) 
'='

>  <Standard Units>  (113) 
nM

>  <Standard Value>  (113) 
7.278

>  <Assay ChEMBL ID>  (113) 
CHEMBL3887074

>  <Assay Description>  (113) 
Inhibition Assay: ALK-inhibiting activity was measured by following an activity of inhibiting phosphorylation by biotinylated peptide (EGPWLEEEEEAYGWMDF). For the detection of phosphorylation of the biotinylated peptide, time-resolved fluorescence measurement was performed using an anti-phosphorylated tyrosine antibody labeled with europium cryptate and streptavidin conjugated to XL665, i.e., an allophycocyanin derivative.

>  <BAO Format ID>  (113) 
BAO_0000357

>  <BAO Label>  (113) 
single protein format

>  <Assay Organism>  (113) 
Homo sapiens

>  <Target ChEMBL ID>  (113) 
CHEMBL4247

>  <Target Name>  (113) 
ALK tyrosine kinase receptor

>  <Target Organism>  (113) 
Homo sapiens

>  <Target Type>  (113) 
SINGLE PROTEIN

>  <Document ChEMBL ID>  (113) 
CHEMBL3886150

>  <Source Description>  (113) 
BindingDB Database

>  <Document Journal>  (113) 
nan

>  <Document Year>  (113) 
2015.0

>  <Active>  (113) 
1.0

>  <bits>  (113) 
<rdkit.DataStructs.cDataStructs.ExplicitBitVect object at 0x000002422F1E2030>

>  <Group>  (113) 
G2

$$$$

     RDKit          2D

 39 43  0  0  0  0  0  0  0  0999 V2000
   12.7489   -2.8007    0.0000 C   0  0  0  0  0  0  0  0  0  0  0  0
   12.2854   -4.2273    0.0000 C   0  0  0  0  0  0  0  0  0  0  0  0
   13.2891   -5.3420    0.0000 C   0  0  0  0  0  0  0  0  0  0  0  0
   10.8181   -4.5392    0.0000 S   0  0  0  0  0  0  0  0  0  0  0  0
   10.5063   -3.0720    0.0000 O   0  0  0  0  0  0  0  0  0  0  0  0
   11.1300   -6.0064    0.0000 O   0  0  0  0  0  0  0  0  0  0  0  0
    9.3509   -4.8510    0.0000 C   0  0  0  0  0  0  0  0  0  0  0  0
    8.8874   -6.2776    0.0000 C   0  0  0  0  0  0  0  0  0  0  0  0
    7.4202   -6.5895    0.0000 C   0  0  0  0  0  0  0  0  0  0  0  0
    6.4165   -5.4748    0.0000 C   0  0  0  0  0  0  0  0  0  0  0  0
    6.8800   -4.0482    0.0000 C   0  0  0  0  0  0  0  0  0  0  0  0
    8.3472   -3.7363    0.0000 C   0  0  0  0  0  0  0  0  0  0  0  0
    8.8107   -2.3097    0.0000 N   0  0  0  0  0  0  0  0  0  0  0  0
    7.8071   -1.1950    0.0000 C   0  0  0  0  0  0  0  0  0  0  0  0
    8.2706    0.2316    0.0000 N   0  0  0  0  0  0  0  0  0  0  0  0
    7.2669    1.3463    0.0000 C   0  0  0  0  0  0  0  0  0  0  0  0
    7.7304    2.7729    0.0000 N   0  0  0  0  0  0  0  0  0  0  0  0
    6.7267    3.8876    0.0000 C   0  0  0  0  0  0  0  0  0  0  0  0
    7.1902    5.3142    0.0000 C   0  0  0  0  0  0  0  0  0  0  0  0
    6.1865    6.4289    0.0000 C   0  0  0  0  0  0  0  0  0  0  0  0
    4.7193    6.1170    0.0000 C   0  0  0  0  0  0  0  0  0  0  0  0
    4.2558    4.6904    0.0000 C   0  0  0  0  0  0  0  0  0  0  0  0
    2.7886    4.3786    0.0000 N   0  0  0  0  0  0  0  0  0  0  0  0
    2.3250    2.9520    0.0000 C   0  0  0  0  0  0  0  0  0  0  0  0
    3.3287    1.8373    0.0000 O   0  0  0  0  0  0  0  0  0  0  0  0
    0.8578    2.6401    0.0000 C   0  0  0  0  0  0  0  0  0  0  0  0
    0.3943    1.2135    0.0000 N   0  0  0  0  0  0  0  0  0  0  0  0
    1.2760    0.0000    0.0000 C   0  0  0  0  0  0  0  0  0  0  0  0
    0.3943   -1.2135    0.0000 C   0  0  0  0  0  0  0  0  0  0  0  0
   -1.0323   -0.7500    0.0000 C   0  0  0  0  0  0  0  0  0  0  0  0
   -1.0323    0.7500    0.0000 C   0  0  0  0  0  0  0  0  0  0  0  0
   -1.9140   -0.4635    0.0000 C   0  0  0  0  0  0  0  0  0  0  0  0
   -1.0323   -1.6771    0.0000 C   0  0  0  0  0  0  0  0  0  0  0  0
   -1.4958   -3.1036    0.0000 O   0  0  0  0  0  0  0  0  0  0  0  0
    5.2595    3.5757    0.0000 C   0  0  0  0  0  0  0  0  0  0  0  0
    5.7997    1.0344    0.0000 N   0  0  0  0  0  0  0  0  0  0  0  0
    5.3361   -0.3922    0.0000 C   0  0  0  0  0  0  0  0  0  0  0  0
    6.3398   -1.5069    0.0000 C   0  0  0  0  0  0  0  0  0  0  0  0
    5.8763   -2.9335    0.0000 Cl  0  0  0  0  0  0  0  0  0  0  0  0
  1  2  1  0
  2  3  1  0
  2  4  1  0
  4  5  2  0
  4  6  2  0
  4  7  1  0
  7  8  2  0
  8  9  1  0
  9 10  2  0
 10 11  1  0
 11 12  2  0
 12 13  1  0
 13 14  1  0
 14 15  2  0
 15 16  1  0
 16 17  1  0
 17 18  1  0
 18 19  2  0
 19 20  1  0
 20 21  2  0
 21 22  1  0
 22 23  1  0
 23 24  1  0
 24 25  2  0
 24 26  1  0
 26 27  1  0
 27 28  1  0
 28 29  1  0
 29 30  1  0
 30 31  1  0
 31 32  1  0
 32 33  1  0
 33 34  1  0
 22 35  2  0
 16 36  2  0
 36 37  1  0
 37 38  2  0
 38 39  1  0
 12  7  1  0
 38 14  1  0
 35 18  1  0
 31 27  1  0
 33 29  1  0
M  END
>  <Compound_ID>  (114) 
CHEMBL3357462

>  <Molecule Name>  (114) 
nan

>  <Molecular Weight>  (114) 
571.1

>  <AlogP>  (114) 
4.19

>  <Smiles>  (114) 
CC(C)S(=O)(=O)c1ccccc1Nc1nc(Nc2cccc(NC(=O)CN3CC4CC3CC4O)c2)ncc1Cl

>  <Standard Type>  (114) 
IC50

>  <Standard Relation>  (114) 
'='

>  <Standard Units>  (114) 
nM

>  <Standard Value>  (114) 
3.0

>  <Assay ChEMBL ID>  (114) 
CHEMBL3364272

>  <Assay Description>  (114) 
Inhibition of ALK (unknown origin) after 60 mins by ELISA

>  <BAO Format ID>  (114) 
BAO_0000357

>  <BAO Label>  (114) 
single protein format

>  <Assay Organism>  (114) 
Homo sapiens

>  <Target ChEMBL ID>  (114) 
CHEMBL4247

>  <Target Name>  (114) 
ALK tyrosine kinase receptor

>  <Target Organism>  (114) 
Homo sapiens

>  <Target Type>  (114) 
SINGLE PROTEIN

>  <Document ChEMBL ID>  (114) 
CHEMBL3351234

>  <Source Description>  (114) 
Scientific Literature

>  <Document Journal>  (114) 
J Med Chem

>  <Document Year>  (114) 
2015.0

>  <Active>  (114) 
1.0

>  <bits>  (114) 
<rdkit.DataStructs.cDataStructs.ExplicitBitVect object at 0x000002422F1E1FC0>

>  <Group>  (114) 
G2

$$$$

     RDKit          2D

 36 39  0  0  0  0  0  0  0  0999 V2000
   -3.7500    3.8971    0.0000 C   0  0  0  0  0  0  0  0  0  0  0  0
   -2.2500    3.8971    0.0000 C   0  0  0  0  0  0  0  0  0  0  0  0
   -1.5000    5.1962    0.0000 C   0  0  0  0  0  0  0  0  0  0  0  0
   -1.5000    2.5981    0.0000 S   0  0  0  0  0  0  0  0  0  0  0  0
   -0.2010    3.3481    0.0000 O   0  0  0  0  0  0  0  0  0  0  0  0
   -2.7990    1.8481    0.0000 O   0  0  0  0  0  0  0  0  0  0  0  0
   -0.7500    1.2990    0.0000 C   0  0  0  0  0  0  0  0  0  0  0  0
   -1.5000   -0.0000    0.0000 C   0  0  0  0  0  0  0  0  0  0  0  0
   -0.7500   -1.2990    0.0000 C   0  0  0  0  0  0  0  0  0  0  0  0
    0.7500   -1.2990    0.0000 C   0  0  0  0  0  0  0  0  0  0  0  0
    1.5000   -0.0000    0.0000 C   0  0  0  0  0  0  0  0  0  0  0  0
    0.7500    1.2990    0.0000 C   0  0  0  0  0  0  0  0  0  0  0  0
    1.5000    2.5981    0.0000 N   0  0  0  0  0  0  0  0  0  0  0  0
    3.0000    2.5981    0.0000 C   0  0  0  0  0  0  0  0  0  0  0  0
    3.7500    1.2990    0.0000 N   0  0  0  0  0  0  0  0  0  0  0  0
    5.2500    1.2990    0.0000 C   0  0  0  0  0  0  0  0  0  0  0  0
    6.0000   -0.0000    0.0000 N   0  0  0  0  0  0  0  0  0  0  0  0
    7.5000   -0.0000    0.0000 C   0  0  0  0  0  0  0  0  0  0  0  0
    8.2500   -1.2990    0.0000 C   0  0  0  0  0  0  0  0  0  0  0  0
    9.7500   -1.2990    0.0000 C   0  0  0  0  0  0  0  0  0  0  0  0
   10.5000   -0.0000    0.0000 C   0  0  0  0  0  0  0  0  0  0  0  0
    9.7500    1.2990    0.0000 C   0  0  0  0  0  0  0  0  0  0  0  0
   10.5000    2.5981    0.0000 N   0  0  0  0  0  0  0  0  0  0  0  0
   12.0000    2.5981    0.0000 C   0  0  0  0  0  0  0  0  0  0  0  0
   12.7500    1.2990    0.0000 O   0  0  0  0  0  0  0  0  0  0  0  0
   12.7500    3.8971    0.0000 C   0  0  0  0  0  0  0  0  0  0  0  0
   14.2500    3.8971    0.0000 C   0  0  0  0  0  0  0  0  0  0  0  0
   15.1317    5.1106    0.0000 C   0  0  0  0  0  0  0  0  0  0  0  0
   16.5583    4.6471    0.0000 C   0  0  0  0  0  0  0  0  0  0  0  0
   16.5583    3.1471    0.0000 C   0  0  0  0  0  0  0  0  0  0  0  0
   15.1317    2.6836    0.0000 O   0  0  0  0  0  0  0  0  0  0  0  0
    8.2500    1.2990    0.0000 C   0  0  0  0  0  0  0  0  0  0  0  0
    6.0000    2.5981    0.0000 N   0  0  0  0  0  0  0  0  0  0  0  0
    5.2500    3.8971    0.0000 C   0  0  0  0  0  0  0  0  0  0  0  0
    3.7500    3.8971    0.0000 C   0  0  0  0  0  0  0  0  0  0  0  0
    3.0000    5.1962    0.0000 Cl  0  0  0  0  0  0  0  0  0  0  0  0
  1  2  1  0
  2  3  1  0
  2  4  1  0
  4  5  2  0
  4  6  2  0
  4  7  1  0
  7  8  2  0
  8  9  1  0
  9 10  2  0
 10 11  1  0
 11 12  2  0
 12 13  1  0
 13 14  1  0
 14 15  2  0
 15 16  1  0
 16 17  1  0
 17 18  1  0
 18 19  2  0
 19 20  1  0
 20 21  2  0
 21 22  1  0
 22 23  1  0
 23 24  1  0
 24 25  2  0
 24 26  1  0
 26 27  1  0
 27 28  2  0
 28 29  1  0
 29 30  2  0
 30 31  1  0
 22 32  2  0
 16 33  2  0
 33 34  1  0
 34 35  2  0
 35 36  1  0
 12  7  1  0
 35 14  1  0
 32 18  1  0
 31 27  1  0
M  END
>  <Compound_ID>  (115) 
CHEMBL3357465

>  <Molecule Name>  (115) 
nan

>  <Molecular Weight>  (115) 
526.02

>  <AlogP>  (115) 
5.57

>  <Smiles>  (115) 
CC(C)S(=O)(=O)c1ccccc1Nc1nc(Nc2cccc(NC(=O)Cc3ccco3)c2)ncc1Cl

>  <Standard Type>  (115) 
IC50

>  <Standard Relation>  (115) 
'='

>  <Standard Units>  (115) 
nM

>  <Standard Value>  (115) 
31.9

>  <Assay ChEMBL ID>  (115) 
CHEMBL3364272

>  <Assay Description>  (115) 
Inhibition of ALK (unknown origin) after 60 mins by ELISA

>  <BAO Format ID>  (115) 
BAO_0000357

>  <BAO Label>  (115) 
single protein format

>  <Assay Organism>  (115) 
Homo sapiens

>  <Target ChEMBL ID>  (115) 
CHEMBL4247

>  <Target Name>  (115) 
ALK tyrosine kinase receptor

>  <Target Organism>  (115) 
Homo sapiens

>  <Target Type>  (115) 
SINGLE PROTEIN

>  <Document ChEMBL ID>  (115) 
CHEMBL3351234

>  <Source Description>  (115) 
Scientific Literature

>  <Document Journal>  (115) 
J Med Chem

>  <Document Year>  (115) 
2015.0

>  <Active>  (115) 
1.0

>  <bits>  (115) 
<rdkit.DataStructs.cDataStructs.ExplicitBitVect object at 0x000002422F1E1A10>

>  <Group>  (115) 
G2

$$$$

     RDKit          2D

 32 35  0  0  0  0  0  0  0  0999 V2000
    5.2500  -11.6913    0.0000 C   0  0  0  0  0  0  0  0  0  0  0  0
    3.7500  -11.6913    0.0000 N   0  0  0  0  0  0  0  0  0  0  0  0
    3.0000  -10.3923    0.0000 C   0  0  0  0  0  0  0  0  0  0  0  0
    3.7500   -9.0933    0.0000 O   0  0  0  0  0  0  0  0  0  0  0  0
    1.5000  -10.3923    0.0000 C   0  0  0  0  0  0  0  0  0  0  0  0
    0.7500  -11.6913    0.0000 C   0  0  0  0  0  0  0  0  0  0  0  0
   -0.7500  -11.6913    0.0000 C   0  0  0  0  0  0  0  0  0  0  0  0
   -1.5000  -10.3923    0.0000 C   0  0  0  0  0  0  0  0  0  0  0  0
   -0.7500   -9.0933    0.0000 C   0  0  0  0  0  0  0  0  0  0  0  0
    0.7500   -9.0933    0.0000 C   0  0  0  0  0  0  0  0  0  0  0  0
    1.5000   -7.7942    0.0000 N   0  0  0  0  0  0  0  0  0  0  0  0
    0.7500   -6.4952    0.0000 C   0  0  0  0  0  0  0  0  0  0  0  0
    1.5000   -5.1962    0.0000 N   0  0  0  0  0  0  0  0  0  0  0  0
    0.7500   -3.8971    0.0000 C   0  0  0  0  0  0  0  0  0  0  0  0
    1.5000   -2.5981    0.0000 N   0  0  0  0  0  0  0  0  0  0  0  0
    0.7500   -1.2990    0.0000 C   0  0  0  0  0  0  0  0  0  0  0  0
    1.5000    0.0000    0.0000 C   0  0  0  0  0  0  0  0  0  0  0  0
    0.7500    1.2990    0.0000 C   0  0  0  0  0  0  0  0  0  0  0  0
   -0.7500    1.2990    0.0000 C   0  0  0  0  0  0  0  0  0  0  0  0
   -1.5000    0.0000    0.0000 C   0  0  0  0  0  0  0  0  0  0  0  0
   -0.7500   -1.2990    0.0000 C   0  0  0  0  0  0  0  0  0  0  0  0
   -2.9832   -0.2236    0.0000 C   0  0  0  0  0  0  0  0  0  0  0  0
   -3.4254   -1.6569    0.0000 C   0  0  0  0  0  0  0  0  0  0  0  0
   -4.0828    0.7967    0.0000 C   0  0  0  0  0  0  0  0  0  0  0  0
   -3.9707    2.2925    0.0000 N   0  0  0  0  0  0  0  0  0  0  0  0
   -5.2698    3.0425    0.0000 C   0  0  0  0  0  0  0  0  0  0  0  0
   -2.7314    3.1375    0.0000 C   0  0  0  0  0  0  0  0  0  0  0  0
   -1.2980    2.6953    0.0000 C   0  0  0  0  0  0  0  0  0  0  0  0
   -0.7500   -3.8971    0.0000 N   0  0  0  0  0  0  0  0  0  0  0  0
   -1.5000   -5.1962    0.0000 C   0  0  0  0  0  0  0  0  0  0  0  0
   -0.7500   -6.4952    0.0000 C   0  0  0  0  0  0  0  0  0  0  0  0
   -1.5000   -7.7942    0.0000 Cl  0  0  0  0  0  0  0  0  0  0  0  0
  1  2  1  0
  2  3  1  0
  3  4  2  0
  3  5  1  0
  5  6  2  0
  6  7  1  0
  7  8  2  0
  8  9  1  0
  9 10  2  0
 10 11  1  0
 11 12  1  0
 12 13  2  0
 13 14  1  0
 14 15  1  0
 15 16  1  0
 16 17  2  0
 17 18  1  0
 18 19  2  0
 19 20  1  0
 20 21  2  0
 20 22  1  0
 22 23  1  0
 22 24  1  0
 24 25  1  0
 25 26  1  0
 25 27  1  0
 27 28  1  0
 14 29  2  0
 29 30  1  0
 30 31  2  0
 31 32  1  0
 10  5  1  0
 31 12  1  0
 21 16  1  0
 28 19  1  0
M  END
>  <Compound_ID>  (116) 
CHEMBL3263971

>  <Molecule Name>  (116) 
nan

>  <Molecular Weight>  (116) 
450.97

>  <AlogP>  (116) 
4.57

>  <Smiles>  (116) 
CNC(=O)c1ccccc1Nc1nc(Nc2ccc3c(c2)C(C)CN(C)CC3)ncc1Cl

>  <Standard Type>  (116) 
IC50

>  <Standard Relation>  (116) 
'='

>  <Standard Units>  (116) 
nM

>  <Standard Value>  (116) 
24.0

>  <Assay ChEMBL ID>  (116) 
CHEMBL3267806

>  <Assay Description>  (116) 
Inhibition of purified recombinant ALK (unknown origin) after 60 mins by ELISA

>  <BAO Format ID>  (116) 
BAO_0000357

>  <BAO Label>  (116) 
single protein format

>  <Assay Organism>  (116) 
Homo sapiens

>  <Target ChEMBL ID>  (116) 
CHEMBL4247

>  <Target Name>  (116) 
ALK tyrosine kinase receptor

>  <Target Organism>  (116) 
Homo sapiens

>  <Target Type>  (116) 
SINGLE PROTEIN

>  <Document ChEMBL ID>  (116) 
CHEMBL3259567

>  <Source Description>  (116) 
Scientific Literature

>  <Document Journal>  (116) 
ACS Med Chem Lett

>  <Document Year>  (116) 
2014.0

>  <Active>  (116) 
1.0

>  <bits>  (116) 
<rdkit.DataStructs.cDataStructs.ExplicitBitVect object at 0x000002422F1E3300>

>  <Group>  (116) 
G2

$$$$

     RDKit          2D

 34 37  0  0  0  0  0  0  0  0999 V2000
   -3.7500    3.8971    0.0000 C   0  0  0  0  0  0  0  0  0  0  0  0
   -2.2500    3.8971    0.0000 C   0  0  0  0  0  0  0  0  0  0  0  0
   -1.5000    5.1962    0.0000 C   0  0  0  0  0  0  0  0  0  0  0  0
   -1.5000    2.5981    0.0000 S   0  0  0  0  0  0  0  0  0  0  0  0
   -0.2010    3.3481    0.0000 O   0  0  0  0  0  0  0  0  0  0  0  0
   -2.7990    1.8481    0.0000 O   0  0  0  0  0  0  0  0  0  0  0  0
   -0.7500    1.2990    0.0000 C   0  0  0  0  0  0  0  0  0  0  0  0
   -1.5000   -0.0000    0.0000 C   0  0  0  0  0  0  0  0  0  0  0  0
   -0.7500   -1.2990    0.0000 C   0  0  0  0  0  0  0  0  0  0  0  0
    0.7500   -1.2990    0.0000 C   0  0  0  0  0  0  0  0  0  0  0  0
    1.5000   -0.0000    0.0000 C   0  0  0  0  0  0  0  0  0  0  0  0
    0.7500    1.2990    0.0000 C   0  0  0  0  0  0  0  0  0  0  0  0
    1.5000    2.5981    0.0000 N   0  0  0  0  0  0  0  0  0  0  0  0
    3.0000    2.5981    0.0000 C   0  0  0  0  0  0  0  0  0  0  0  0
    3.7500    1.2990    0.0000 N   0  0  0  0  0  0  0  0  0  0  0  0
    5.2500    1.2990    0.0000 C   0  0  0  0  0  0  0  0  0  0  0  0
    6.0000   -0.0000    0.0000 N   0  0  0  0  0  0  0  0  0  0  0  0
    7.5000   -0.0000    0.0000 C   0  0  0  0  0  0  0  0  0  0  0  0
    8.2500   -1.2990    0.0000 C   0  0  0  0  0  0  0  0  0  0  0  0
    9.7500   -1.2990    0.0000 C   0  0  0  0  0  0  0  0  0  0  0  0
   10.5000   -0.0000    0.0000 C   0  0  0  0  0  0  0  0  0  0  0  0
    9.7500    1.2990    0.0000 C   0  0  0  0  0  0  0  0  0  0  0  0
   10.5000    2.5981    0.0000 N   0  0  0  0  0  0  0  0  0  0  0  0
   12.0000    2.5981    0.0000 C   0  0  0  0  0  0  0  0  0  0  0  0
   12.7500    1.2990    0.0000 O   0  0  0  0  0  0  0  0  0  0  0  0
   12.7500    3.8971    0.0000 C   0  0  0  0  0  0  0  0  0  0  0  0
   11.6009    4.8613    0.0000 N   0  0  0  0  0  0  0  0  0  0  0  0
   13.8991    4.8613    0.0000 C   0  0  0  0  0  0  0  0  0  0  0  0
   14.1595    3.3841    0.0000 C   0  0  0  0  0  0  0  0  0  0  0  0
    8.2500    1.2990    0.0000 C   0  0  0  0  0  0  0  0  0  0  0  0
    6.0000    2.5981    0.0000 N   0  0  0  0  0  0  0  0  0  0  0  0
    5.2500    3.8971    0.0000 C   0  0  0  0  0  0  0  0  0  0  0  0
    3.7500    3.8971    0.0000 C   0  0  0  0  0  0  0  0  0  0  0  0
    3.0000    5.1962    0.0000 Cl  0  0  0  0  0  0  0  0  0  0  0  0
  1  2  1  0
  2  3  1  0
  2  4  1  0
  4  5  2  0
  4  6  2  0
  4  7  1  0
  7  8  2  0
  8  9  1  0
  9 10  2  0
 10 11  1  0
 11 12  2  0
 12 13  1  0
 13 14  1  0
 14 15  2  0
 15 16  1  0
 16 17  1  0
 17 18  1  0
 18 19  2  0
 19 20  1  0
 20 21  2  0
 21 22  1  0
 22 23  1  0
 23 24  1  0
 24 25  2  0
 24 26  1  0
 26 27  1  0
 26 28  1  0
 28 29  1  0
 22 30  2  0
 16 31  2  0
 31 32  1  0
 32 33  2  0
 33 34  1  0
 12  7  1  0
 33 14  1  0
 30 18  1  0
 29 26  1  0
M  END
>  <Compound_ID>  (117) 
CHEMBL3357446

>  <Molecule Name>  (117) 
nan

>  <Molecular Weight>  (117) 
501.01

>  <AlogP>  (117) 
4.23

>  <Smiles>  (117) 
CC(C)S(=O)(=O)c1ccccc1Nc1nc(Nc2cccc(NC(=O)C3(N)CC3)c2)ncc1Cl

>  <Standard Type>  (117) 
IC50

>  <Standard Relation>  (117) 
'='

>  <Standard Units>  (117) 
nM

>  <Standard Value>  (117) 
50.8

>  <Assay ChEMBL ID>  (117) 
CHEMBL3364272

>  <Assay Description>  (117) 
Inhibition of ALK (unknown origin) after 60 mins by ELISA

>  <BAO Format ID>  (117) 
BAO_0000357

>  <BAO Label>  (117) 
single protein format

>  <Assay Organism>  (117) 
Homo sapiens

>  <Target ChEMBL ID>  (117) 
CHEMBL4247

>  <Target Name>  (117) 
ALK tyrosine kinase receptor

>  <Target Organism>  (117) 
Homo sapiens

>  <Target Type>  (117) 
SINGLE PROTEIN

>  <Document ChEMBL ID>  (117) 
CHEMBL3351234

>  <Source Description>  (117) 
Scientific Literature

>  <Document Journal>  (117) 
J Med Chem

>  <Document Year>  (117) 
2015.0

>  <Active>  (117) 
1.0

>  <bits>  (117) 
<rdkit.DataStructs.cDataStructs.ExplicitBitVect object at 0x000002422F1E2960>

>  <Group>  (117) 
G2

$$$$

     RDKit          2D

 37 40  0  0  0  0  0  0  0  0999 V2000
    6.0000   -2.5981    0.0000 C   0  0  0  0  0  0  0  0  0  0  0  0
    5.2500   -1.2990    0.0000 C   0  0  0  0  0  0  0  0  0  0  0  0
    3.7500   -1.2990    0.0000 N   0  0  0  0  0  0  0  0  0  0  0  0
    3.0000    0.0000    0.0000 C   0  0  0  0  0  0  0  0  0  0  0  0
    3.7500    1.2990    0.0000 O   0  0  0  0  0  0  0  0  0  0  0  0
    1.5000    0.0000    0.0000 C   0  0  0  0  0  0  0  0  0  0  0  0
    0.7500   -1.2990    0.0000 C   0  0  0  0  0  0  0  0  0  0  0  0
   -0.7500   -1.2990    0.0000 C   0  0  0  0  0  0  0  0  0  0  0  0
   -1.5000   -2.5981    0.0000 O   0  0  0  0  0  0  0  0  0  0  0  0
   -0.7500   -3.8971    0.0000 C   0  0  0  0  0  0  0  0  0  0  0  0
    0.5490   -4.6471    0.0000 C   0  0  0  0  0  0  0  0  0  0  0  0
   -0.7500   -5.3971    0.0000 C   0  0  0  0  0  0  0  0  0  0  0  0
   -1.5000    0.0000    0.0000 C   0  0  0  0  0  0  0  0  0  0  0  0
   -3.0000    0.0000    0.0000 N   0  0  0  0  0  0  0  0  0  0  0  0
   -3.7500    1.2990    0.0000 C   0  0  0  0  0  0  0  0  0  0  0  0
   -3.0000    2.5981    0.0000 N   0  0  0  0  0  0  0  0  0  0  0  0
   -3.7500    3.8971    0.0000 C   0  0  0  0  0  0  0  0  0  0  0  0
   -5.2500    3.8971    0.0000 C   0  0  0  0  0  0  0  0  0  0  0  0
   -6.0000    5.1962    0.0000 Cl  0  0  0  0  0  0  0  0  0  0  0  0
   -6.0000    2.5981    0.0000 C   0  0  0  0  0  0  0  0  0  0  0  0
   -7.5000    2.5981    0.0000 N   0  0  0  0  0  0  0  0  0  0  0  0
   -8.2500    1.2990    0.0000 C   0  0  0  0  0  0  0  0  0  0  0  0
   -7.6399   -0.0713    0.0000 C   0  0  0  0  0  0  0  0  0  0  0  0
   -8.7546   -1.0750    0.0000 N   0  0  0  0  0  0  0  0  0  0  0  0
   -8.5978   -2.5668    0.0000 C   0  0  0  0  0  0  0  0  0  0  0  0
  -10.0537   -0.3250    0.0000 N   0  0  0  0  0  0  0  0  0  0  0  0
   -9.7418    1.1422    0.0000 C   0  0  0  0  0  0  0  0  0  0  0  0
  -10.7455    2.2570    0.0000 S   0  0  0  0  0  0  0  0  0  0  0  0
   -9.6308    3.2607    0.0000 O   0  0  0  0  0  0  0  0  0  0  0  0
  -11.8602    1.2533    0.0000 O   0  0  0  0  0  0  0  0  0  0  0  0
  -11.7492    3.3717    0.0000 C   0  0  0  0  0  0  0  0  0  0  0  0
  -11.2856    4.7983    0.0000 C   0  0  0  0  0  0  0  0  0  0  0  0
  -13.2164    3.0598    0.0000 C   0  0  0  0  0  0  0  0  0  0  0  0
   -5.2500    1.2990    0.0000 N   0  0  0  0  0  0  0  0  0  0  0  0
   -0.7500    1.2990    0.0000 C   0  0  0  0  0  0  0  0  0  0  0  0
    0.7500    1.2990    0.0000 C   0  0  0  0  0  0  0  0  0  0  0  0
    1.5000    2.5981    0.0000 C   0  0  0  0  0  0  0  0  0  0  0  0
  1  2  1  0
  2  3  1  0
  3  4  1  0
  4  5  2  0
  4  6  1  0
  6  7  2  0
  7  8  1  0
  8  9  1  0
  9 10  1  0
 10 11  1  0
 11 12  1  0
  8 13  2  0
 13 14  1  0
 14 15  1  0
 15 16  2  0
 16 17  1  0
 17 18  2  0
 18 19  1  0
 18 20  1  0
 20 21  1  0
 21 22  1  0
 22 23  2  0
 23 24  1  0
 24 25  1  0
 24 26  1  0
 26 27  2  0
 27 28  1  0
 28 29  2  0
 28 30  2  0
 28 31  1  0
 31 32  1  0
 31 33  1  0
 20 34  2  0
 13 35  1  0
 35 36  2  0
 36 37  1  0
 36  6  1  0
 12 10  1  0
 34 15  1  0
 27 22  1  0
M  END
>  <Compound_ID>  (118) 
CHEMBL3604655

>  <Molecule Name>  (118) 
nan

>  <Molecular Weight>  (118) 
548.07

>  <AlogP>  (118) 
4.13

>  <Smiles>  (118) 
CCNC(=O)c1cc(OC2CC2)c(Nc2ncc(Cl)c(Nc3cn(C)nc3S(=O)(=O)C(C)C)n2)cc1C

>  <Standard Type>  (118) 
IC50

>  <Standard Relation>  (118) 
'='

>  <Standard Units>  (118) 
nM

>  <Standard Value>  (118) 
6.0

>  <Assay ChEMBL ID>  (118) 
CHEMBL3607641

>  <Assay Description>  (118) 
Inhibition of ALK L1196M mutant (unknown origin) using TK substrate-biotin incubated for 30 mins by HTRF assay

>  <BAO Format ID>  (118) 
BAO_0000357

>  <BAO Label>  (118) 
single protein format

>  <Assay Organism>  (118) 
Homo sapiens

>  <Target ChEMBL ID>  (118) 
CHEMBL4247

>  <Target Name>  (118) 
ALK tyrosine kinase receptor

>  <Target Organism>  (118) 
Homo sapiens

>  <Target Type>  (118) 
SINGLE PROTEIN

>  <Document ChEMBL ID>  (118) 
CHEMBL3603807

>  <Source Description>  (118) 
Scientific Literature

>  <Document Journal>  (118) 
Bioorg Med Chem Lett

>  <Document Year>  (118) 
2015.0

>  <Active>  (118) 
1.0

>  <bits>  (118) 
<rdkit.DataStructs.cDataStructs.ExplicitBitVect object at 0x000002422F1E26C0>

>  <Group>  (118) 
G2

$$$$

     RDKit          2D

 35 39  0  0  0  0  0  0  0  0999 V2000
    2.6491   -3.5623    0.0000 C   0  0  0  0  0  0  0  0  0  0  0  0
    1.5000   -2.5981    0.0000 C   0  0  0  0  0  0  0  0  0  0  0  0
    2.6491   -1.6339    0.0000 C   0  0  0  0  0  0  0  0  0  0  0  0
    0.7500   -1.2990    0.0000 C   0  0  0  0  0  0  0  0  0  0  0  0
    1.5000    0.0000    0.0000 C   0  0  0  0  0  0  0  0  0  0  0  0
    0.7500    1.2990    0.0000 C   0  0  0  0  0  0  0  0  0  0  0  0
    1.5000    2.5981    0.0000 O   0  0  0  0  0  0  0  0  0  0  0  0
    3.0000    2.5981    0.0000 C   0  0  0  0  0  0  0  0  0  0  0  0
    3.7500    3.8971    0.0000 C   0  0  0  0  0  0  0  0  0  0  0  0
    5.2500    3.8971    0.0000 N   0  0  0  0  0  0  0  0  0  0  0  0
    6.0000    5.1962    0.0000 S   0  0  0  0  0  0  0  0  0  0  0  0
    7.2990    4.4462    0.0000 O   0  0  0  0  0  0  0  0  0  0  0  0
    4.7010    5.9462    0.0000 O   0  0  0  0  0  0  0  0  0  0  0  0
    6.7500    6.4952    0.0000 N   0  0  0  0  0  0  0  0  0  0  0  0
    8.2500    6.4952    0.0000 C   0  0  0  0  0  0  0  0  0  0  0  0
    9.0000    7.7942    0.0000 C   0  0  0  0  0  0  0  0  0  0  0  0
    8.2500    9.0933    0.0000 O   0  0  0  0  0  0  0  0  0  0  0  0
    6.7500    9.0933    0.0000 C   0  0  0  0  0  0  0  0  0  0  0  0
    6.0000    7.7942    0.0000 C   0  0  0  0  0  0  0  0  0  0  0  0
   -0.7500    1.2990    0.0000 C   0  0  0  0  0  0  0  0  0  0  0  0
   -1.5000    0.0000    0.0000 C   0  0  0  0  0  0  0  0  0  0  0  0
   -0.7500   -1.2990    0.0000 C   0  0  0  0  0  0  0  0  0  0  0  0
   -1.5000   -2.5981    0.0000 C   0  0  0  0  0  0  0  0  0  0  0  0
   -3.0000   -2.5981    0.0000 O   0  0  0  0  0  0  0  0  0  0  0  0
   -0.7500   -3.8971    0.0000 C   0  0  0  0  0  0  0  0  0  0  0  0
    0.7500   -3.8971    0.0000 C   0  0  0  0  0  0  0  0  0  0  0  0
    1.2135   -5.3237    0.0000 N   0  0  0  0  0  0  0  0  0  0  0  0
    0.0000   -6.2054    0.0000 C   0  0  0  0  0  0  0  0  0  0  0  0
   -0.1568   -7.6972    0.0000 C   0  0  0  0  0  0  0  0  0  0  0  0
   -1.5271   -8.3073    0.0000 C   0  0  0  0  0  0  0  0  0  0  0  0
   -1.6839   -9.7990    0.0000 C   0  0  0  0  0  0  0  0  0  0  0  0
   -1.8407  -11.2908    0.0000 N   0  0  0  0  0  0  0  0  0  0  0  0
   -2.7406   -7.4256    0.0000 C   0  0  0  0  0  0  0  0  0  0  0  0
   -2.5838   -5.9338    0.0000 C   0  0  0  0  0  0  0  0  0  0  0  0
   -1.2135   -5.3237    0.0000 C   0  0  0  0  0  0  0  0  0  0  0  0
  1  2  1  0
  2  3  1  0
  2  4  1  0
  4  5  2  0
  5  6  1  0
  6  7  1  0
  7  8  1  0
  8  9  1  0
  9 10  1  0
 10 11  1  0
 11 12  2  0
 11 13  2  0
 11 14  1  0
 14 15  1  0
 15 16  1  0
 16 17  1  0
 17 18  1  0
 18 19  1  0
  6 20  2  0
 20 21  1  0
 21 22  2  0
 22 23  1  0
 23 24  2  0
 23 25  1  0
 25 26  2  0
 26 27  1  0
 27 28  1  0
 28 29  2  0
 29 30  1  0
 30 31  1  0
 31 32  3  0
 30 33  2  0
 33 34  1  0
 34 35  2  0
 26  2  1  0
 35 28  1  0
 22  4  1  0
 35 25  1  0
 19 14  1  0
M  END
>  <Compound_ID>  (119) 
CHEMBL3962401

>  <Molecule Name>  (119) 
nan

>  <Molecular Weight>  (119) 
494.57

>  <AlogP>  (119) 
2.46

>  <Smiles>  (119) 
CC1(C)c2cc(OCCNS(=O)(=O)N3CCOCC3)ccc2C(=O)c2c1[nH]c1cc(C#N)ccc21

>  <Standard Type>  (119) 
IC50

>  <Standard Relation>  (119) 
'='

>  <Standard Units>  (119) 
nM

>  <Standard Value>  (119) 
16.0

>  <Assay ChEMBL ID>  (119) 
CHEMBL3887074

>  <Assay Description>  (119) 
Inhibition Assay: ALK-inhibiting activity was measured by following an activity of inhibiting phosphorylation by biotinylated peptide (EGPWLEEEEEAYGWMDF). For the detection of phosphorylation of the biotinylated peptide, time-resolved fluorescence measurement was performed using an anti-phosphorylated tyrosine antibody labeled with europium cryptate and streptavidin conjugated to XL665, i.e., an allophycocyanin derivative.

>  <BAO Format ID>  (119) 
BAO_0000357

>  <BAO Label>  (119) 
single protein format

>  <Assay Organism>  (119) 
Homo sapiens

>  <Target ChEMBL ID>  (119) 
CHEMBL4247

>  <Target Name>  (119) 
ALK tyrosine kinase receptor

>  <Target Organism>  (119) 
Homo sapiens

>  <Target Type>  (119) 
SINGLE PROTEIN

>  <Document ChEMBL ID>  (119) 
CHEMBL3886150

>  <Source Description>  (119) 
BindingDB Database

>  <Document Journal>  (119) 
nan

>  <Document Year>  (119) 
2015.0

>  <Active>  (119) 
1.0

>  <bits>  (119) 
<rdkit.DataStructs.cDataStructs.ExplicitBitVect object at 0x000002422F1E2340>

>  <Group>  (119) 
G2

$$$$

     RDKit          2D

 34 38  0  0  0  0  0  0  0  0999 V2000
    1.3396   -4.9944    0.0000 C   0  0  0  0  0  0  0  0  0  0  0  0
   -0.1568   -5.0991    0.0000 C   0  0  0  0  0  0  0  0  0  0  0  0
    0.2061   -6.5545    0.0000 C   0  0  0  0  0  0  0  0  0  0  0  0
   -1.5271   -5.7092    0.0000 C   0  0  0  0  0  0  0  0  0  0  0  0
   -1.6839   -7.2010    0.0000 C   0  0  0  0  0  0  0  0  0  0  0  0
   -3.0542   -7.8111    0.0000 C   0  0  0  0  0  0  0  0  0  0  0  0
   -3.2110   -9.3029    0.0000 O   0  0  0  0  0  0  0  0  0  0  0  0
   -4.5813   -9.9130    0.0000 C   0  0  0  0  0  0  0  0  0  0  0  0
   -5.7949   -9.0313    0.0000 C   0  0  0  0  0  0  0  0  0  0  0  0
   -7.1652   -9.6414    0.0000 C   0  0  0  0  0  0  0  0  0  0  0  0
   -7.3220  -11.1332    0.0000 N   0  0  0  0  0  0  0  0  0  0  0  0
   -8.6923  -11.7433    0.0000 S   0  0  0  0  0  0  0  0  0  0  0  0
  -10.0626  -12.3534    0.0000 C   0  0  0  0  0  0  0  0  0  0  0  0
   -8.0822  -13.1136    0.0000 O   0  0  0  0  0  0  0  0  0  0  0  0
   -9.3024  -10.3730    0.0000 O   0  0  0  0  0  0  0  0  0  0  0  0
   -6.1084  -12.0149    0.0000 C   0  0  0  0  0  0  0  0  0  0  0  0
   -4.7381  -11.4047    0.0000 C   0  0  0  0  0  0  0  0  0  0  0  0
   -4.2677   -6.9294    0.0000 C   0  0  0  0  0  0  0  0  0  0  0  0
   -5.6381   -7.5395    0.0000 Br  0  0  0  0  0  0  0  0  0  0  0  0
   -4.1110   -5.4376    0.0000 C   0  0  0  0  0  0  0  0  0  0  0  0
   -2.7406   -4.8275    0.0000 C   0  0  0  0  0  0  0  0  0  0  0  0
   -2.5838   -3.3357    0.0000 C   0  0  0  0  0  0  0  0  0  0  0  0
   -3.7974   -2.4540    0.0000 O   0  0  0  0  0  0  0  0  0  0  0  0
   -1.2135   -2.7256    0.0000 C   0  0  0  0  0  0  0  0  0  0  0  0
   -0.0000   -3.6073    0.0000 C   0  0  0  0  0  0  0  0  0  0  0  0
    1.2135   -2.7256    0.0000 N   0  0  0  0  0  0  0  0  0  0  0  0
    0.7500   -1.2990    0.0000 C   0  0  0  0  0  0  0  0  0  0  0  0
    1.5000    0.0000    0.0000 C   0  0  0  0  0  0  0  0  0  0  0  0
    0.7500    1.2990    0.0000 C   0  0  0  0  0  0  0  0  0  0  0  0
    1.5000    2.5981    0.0000 C   0  0  0  0  0  0  0  0  0  0  0  0
    2.2500    3.8971    0.0000 N   0  0  0  0  0  0  0  0  0  0  0  0
   -0.7500    1.2990    0.0000 C   0  0  0  0  0  0  0  0  0  0  0  0
   -1.5000    0.0000    0.0000 C   0  0  0  0  0  0  0  0  0  0  0  0
   -0.7500   -1.2990    0.0000 C   0  0  0  0  0  0  0  0  0  0  0  0
  1  2  1  0
  2  3  1  0
  2  4  1  0
  4  5  2  0
  5  6  1  0
  6  7  1  0
  7  8  1  0
  8  9  1  0
  9 10  1  0
 10 11  1  0
 11 12  1  0
 12 13  1  0
 12 14  2  0
 12 15  2  0
 11 16  1  0
 16 17  1  0
  6 18  2  0
 18 19  1  0
 18 20  1  0
 20 21  2  0
 21 22  1  0
 22 23  2  0
 22 24  1  0
 24 25  2  0
 25 26  1  0
 26 27  1  0
 27 28  2  0
 28 29  1  0
 29 30  1  0
 30 31  3  0
 29 32  2  0
 32 33  1  0
 33 34  2  0
 25  2  1  0
 34 27  1  0
 21  4  1  0
 34 24  1  0
 17  8  1  0
M  END
>  <Compound_ID>  (120) 
CHEMBL3907048

>  <Molecule Name>  (120) 
nan

>  <Molecular Weight>  (120) 
542.46

>  <AlogP>  (120) 
4.48

>  <Smiles>  (120) 
CC1(C)c2cc(OC3CCN(S(C)(=O)=O)CC3)c(Br)cc2C(=O)c2c1[nH]c1cc(C#N)ccc21

>  <Standard Type>  (120) 
IC50

>  <Standard Relation>  (120) 
'='

>  <Standard Units>  (120) 
nM

>  <Standard Value>  (120) 
5.054

>  <Assay ChEMBL ID>  (120) 
CHEMBL3887074

>  <Assay Description>  (120) 
Inhibition Assay: ALK-inhibiting activity was measured by following an activity of inhibiting phosphorylation by biotinylated peptide (EGPWLEEEEEAYGWMDF). For the detection of phosphorylation of the biotinylated peptide, time-resolved fluorescence measurement was performed using an anti-phosphorylated tyrosine antibody labeled with europium cryptate and streptavidin conjugated to XL665, i.e., an allophycocyanin derivative.

>  <BAO Format ID>  (120) 
BAO_0000357

>  <BAO Label>  (120) 
single protein format

>  <Assay Organism>  (120) 
Homo sapiens

>  <Target ChEMBL ID>  (120) 
CHEMBL4247

>  <Target Name>  (120) 
ALK tyrosine kinase receptor

>  <Target Organism>  (120) 
Homo sapiens

>  <Target Type>  (120) 
SINGLE PROTEIN

>  <Document ChEMBL ID>  (120) 
CHEMBL3886150

>  <Source Description>  (120) 
BindingDB Database

>  <Document Journal>  (120) 
nan

>  <Document Year>  (120) 
2015.0

>  <Active>  (120) 
1.0

>  <bits>  (120) 
<rdkit.DataStructs.cDataStructs.ExplicitBitVect object at 0x000002422F1E1700>

>  <Group>  (120) 
G2

$$$$

     RDKit          2D

 35 40  0  0  0  0  0  0  0  0999 V2000
   -7.0084   -8.1496    0.0000 C   0  0  0  0  0  0  0  0  0  0  0  0
   -5.6381   -7.5395    0.0000 C   0  0  0  0  0  0  0  0  0  0  0  0
   -4.2677   -6.9294    0.0000 C   0  0  0  0  0  0  0  0  0  0  0  0
   -4.1110   -5.4376    0.0000 C   0  0  0  0  0  0  0  0  0  0  0  0
   -2.7406   -4.8275    0.0000 C   0  0  0  0  0  0  0  0  0  0  0  0
   -1.5271   -5.7092    0.0000 C   0  0  0  0  0  0  0  0  0  0  0  0
   -1.6839   -7.2010    0.0000 C   0  0  0  0  0  0  0  0  0  0  0  0
   -3.0542   -7.8111    0.0000 C   0  0  0  0  0  0  0  0  0  0  0  0
   -3.2110   -9.3029    0.0000 O   0  0  0  0  0  0  0  0  0  0  0  0
   -1.9975  -10.1845    0.0000 C   0  0  0  0  0  0  0  0  0  0  0  0
   -2.1543  -11.6763    0.0000 C   0  0  0  0  0  0  0  0  0  0  0  0
   -0.9408  -12.5580    0.0000 C   0  0  0  0  0  0  0  0  0  0  0  0
    0.4296  -11.9479    0.0000 N   0  0  0  0  0  0  0  0  0  0  0  0
    1.6431  -12.8296    0.0000 C   0  0  0  0  0  0  0  0  0  0  0  0
    1.8777  -14.3111    0.0000 C   0  0  0  0  0  0  0  0  0  0  0  0
    3.3593  -14.0765    0.0000 O   0  0  0  0  0  0  0  0  0  0  0  0
    3.1246  -12.5949    0.0000 C   0  0  0  0  0  0  0  0  0  0  0  0
    0.5864  -10.4561    0.0000 C   0  0  0  0  0  0  0  0  0  0  0  0
   -0.6272   -9.5744    0.0000 C   0  0  0  0  0  0  0  0  0  0  0  0
   -0.1568   -5.0991    0.0000 C   0  0  0  0  0  0  0  0  0  0  0  0
    1.3396   -4.9944    0.0000 C   0  0  0  0  0  0  0  0  0  0  0  0
    0.2061   -6.5545    0.0000 C   0  0  0  0  0  0  0  0  0  0  0  0
   -0.0000   -3.6073    0.0000 C   0  0  0  0  0  0  0  0  0  0  0  0
    1.2135   -2.7256    0.0000 N   0  0  0  0  0  0  0  0  0  0  0  0
    0.7500   -1.2990    0.0000 C   0  0  0  0  0  0  0  0  0  0  0  0
    1.5000    0.0000    0.0000 C   0  0  0  0  0  0  0  0  0  0  0  0
    0.7500    1.2990    0.0000 C   0  0  0  0  0  0  0  0  0  0  0  0
    1.5000    2.5981    0.0000 C   0  0  0  0  0  0  0  0  0  0  0  0
    2.2500    3.8971    0.0000 N   0  0  0  0  0  0  0  0  0  0  0  0
   -0.7500    1.2990    0.0000 C   0  0  0  0  0  0  0  0  0  0  0  0
   -1.5000    0.0000    0.0000 C   0  0  0  0  0  0  0  0  0  0  0  0
   -0.7500   -1.2990    0.0000 C   0  0  0  0  0  0  0  0  0  0  0  0
   -1.2135   -2.7256    0.0000 C   0  0  0  0  0  0  0  0  0  0  0  0
   -2.5838   -3.3357    0.0000 C   0  0  0  0  0  0  0  0  0  0  0  0
   -3.7974   -2.4540    0.0000 O   0  0  0  0  0  0  0  0  0  0  0  0
  1  2  3  0
  2  3  1  0
  3  4  2  0
  4  5  1  0
  5  6  2  0
  6  7  1  0
  7  8  2  0
  8  9  1  0
  9 10  1  0
 10 11  1  0
 11 12  1  0
 12 13  1  0
 13 14  1  0
 14 15  1  0
 15 16  1  0
 16 17  1  0
 13 18  1  0
 18 19  1  0
  6 20  1  0
 20 21  1  0
 20 22  1  0
 20 23  1  0
 23 24  1  0
 24 25  1  0
 25 26  2  0
 26 27  1  0
 27 28  1  0
 28 29  3  0
 27 30  2  0
 30 31  1  0
 31 32  2  0
 32 33  1  0
 33 34  1  0
 34 35  2  0
  8  3  1  0
 19 10  1  0
 33 23  2  0
 34  5  1  0
 17 14  1  0
 32 25  1  0
M  END
>  <Compound_ID>  (121) 
CHEMBL3941123

>  <Molecule Name>  (121) 
nan

>  <Molecular Weight>  (121) 
465.55

>  <AlogP>  (121) 
4.13

>  <Smiles>  (121) 
C#Cc1cc2c(cc1OC1CCN(C3COC3)CC1)C(C)(C)c1[nH]c3cc(C#N)ccc3c1C2=O

>  <Standard Type>  (121) 
IC50

>  <Standard Relation>  (121) 
'='

>  <Standard Units>  (121) 
nM

>  <Standard Value>  (121) 
1.625

>  <Assay ChEMBL ID>  (121) 
CHEMBL3887074

>  <Assay Description>  (121) 
Inhibition Assay: ALK-inhibiting activity was measured by following an activity of inhibiting phosphorylation by biotinylated peptide (EGPWLEEEEEAYGWMDF). For the detection of phosphorylation of the biotinylated peptide, time-resolved fluorescence measurement was performed using an anti-phosphorylated tyrosine antibody labeled with europium cryptate and streptavidin conjugated to XL665, i.e., an allophycocyanin derivative.

>  <BAO Format ID>  (121) 
BAO_0000357

>  <BAO Label>  (121) 
single protein format

>  <Assay Organism>  (121) 
Homo sapiens

>  <Target ChEMBL ID>  (121) 
CHEMBL4247

>  <Target Name>  (121) 
ALK tyrosine kinase receptor

>  <Target Organism>  (121) 
Homo sapiens

>  <Target Type>  (121) 
SINGLE PROTEIN

>  <Document ChEMBL ID>  (121) 
CHEMBL3886150

>  <Source Description>  (121) 
BindingDB Database

>  <Document Journal>  (121) 
nan

>  <Document Year>  (121) 
2015.0

>  <Active>  (121) 
1.0

>  <bits>  (121) 
<rdkit.DataStructs.cDataStructs.ExplicitBitVect object at 0x000002422F1E1150>

>  <Group>  (121) 
G2

$$$$

     RDKit          2D

 44 48  0  0  0  0  0  0  0  0999 V2000
    0.5271    8.0861    0.0000 C   0  0  0  0  0  0  0  0  0  0  0  0
   -0.8995    7.6226    0.0000 C   0  0  0  0  0  0  0  0  0  0  0  0
   -1.2114    6.1554    0.0000 C   0  0  0  0  0  0  0  0  0  0  0  0
   -2.6380    5.6918    0.0000 C   0  0  0  0  0  0  0  0  0  0  0  0
   -2.9499    4.2246    0.0000 N   0  0  0  0  0  0  0  0  0  0  0  0
   -1.8351    3.2209    0.0000 C   0  0  0  0  0  0  0  0  0  0  0  0
   -0.4086    3.6844    0.0000 N   0  0  0  0  0  0  0  0  0  0  0  0
    0.7062    2.6807    0.0000 C   0  0  0  0  0  0  0  0  0  0  0  0
    2.1328    3.1443    0.0000 N   0  0  0  0  0  0  0  0  0  0  0  0
    2.4446    4.6115    0.0000 C   0  0  0  0  0  0  0  0  0  0  0  0
    1.3299    5.6152    0.0000 C   0  0  0  0  0  0  0  0  0  0  0  0
    1.6418    7.0824    0.0000 C   0  0  0  0  0  0  0  0  0  0  0  0
    3.0684    7.5459    0.0000 C   0  0  0  0  0  0  0  0  0  0  0  0
    4.1831    6.5422    0.0000 C   0  0  0  0  0  0  0  0  0  0  0  0
    3.8712    5.0750    0.0000 C   0  0  0  0  0  0  0  0  0  0  0  0
    4.9859    4.0713    0.0000 S   0  0  0  0  0  0  0  0  0  0  0  0
    3.9822    2.9566    0.0000 O   0  0  0  0  0  0  0  0  0  0  0  0
    5.9896    5.1860    0.0000 O   0  0  0  0  0  0  0  0  0  0  0  0
    6.1006    3.0676    0.0000 C   0  0  0  0  0  0  0  0  0  0  0  0
    5.7888    1.6004    0.0000 C   0  0  0  0  0  0  0  0  0  0  0  0
    7.5272    3.5312    0.0000 C   0  0  0  0  0  0  0  0  0  0  0  0
    0.3943    1.2135    0.0000 C   0  0  0  0  0  0  0  0  0  0  0  0
    1.2760    0.0000    0.0000 C   0  0  0  0  0  0  0  0  0  0  0  0
    2.7760    0.0000    0.0000 C   0  0  0  0  0  0  0  0  0  0  0  0
    0.3943   -1.2135    0.0000 C   0  0  0  0  0  0  0  0  0  0  0  0
   -1.0323   -0.7500    0.0000 N   0  0  0  0  0  0  0  0  0  0  0  0
   -1.0323    0.7500    0.0000 C   0  0  0  0  0  0  0  0  0  0  0  0
   -2.1470    1.7537    0.0000 N   0  0  0  0  0  0  0  0  0  0  0  0
   -3.7527    6.6955    0.0000 C   0  0  0  0  0  0  0  0  0  0  0  0
   -5.1793    6.2320    0.0000 O   0  0  0  0  0  0  0  0  0  0  0  0
   -6.2940    7.2357    0.0000 C   0  0  0  0  0  0  0  0  0  0  0  0
   -7.7206    6.7722    0.0000 C   0  0  0  0  0  0  0  0  0  0  0  0
   -5.9821    8.7029    0.0000 C   0  0  0  0  0  0  0  0  0  0  0  0
   -3.4408    8.1628    0.0000 C   0  0  0  0  0  0  0  0  0  0  0  0
   -2.0143    8.6263    0.0000 C   0  0  0  0  0  0  0  0  0  0  0  0
   -1.7024   10.0935    0.0000 C   0  0  0  0  0  0  0  0  0  0  0  0
   -0.2758   10.5570    0.0000 C   0  0  0  0  0  0  0  0  0  0  0  0
    0.0361   12.0242    0.0000 C   0  0  0  0  0  0  0  0  0  0  0  0
   -1.0786   13.0279    0.0000 N   0  0  0  0  0  0  0  0  0  0  0  0
   -0.7668   14.4952    0.0000 C   0  0  0  0  0  0  0  0  0  0  0  0
    0.6598   14.9587    0.0000 C   0  0  0  0  0  0  0  0  0  0  0  0
    0.9717   16.4259    0.0000 O   0  0  0  0  0  0  0  0  0  0  0  0
   -2.5052   12.5644    0.0000 C   0  0  0  0  0  0  0  0  0  0  0  0
   -2.8171   11.0972    0.0000 C   0  0  0  0  0  0  0  0  0  0  0  0
  1  2  1  0
  2  3  2  0
  3  4  1  0
  4  5  1  0
  5  6  1  0
  6  7  2  0
  7  8  1  0
  8  9  1  0
  9 10  1  0
 10 11  2  0
 11 12  1  0
 12 13  2  0
 13 14  1  0
 14 15  2  0
 15 16  1  0
 16 17  2  0
 16 18  2  0
 16 19  1  0
 19 20  1  0
 19 21  1  0
  8 22  2  0
 22 23  1  0
 23 24  1  0
 23 25  2  0
 25 26  1  0
 26 27  1  0
 27 28  2  0
  4 29  2  0
 29 30  1  0
 30 31  1  0
 31 32  1  0
 31 33  1  0
 29 34  1  0
 34 35  2  0
 35 36  1  0
 36 37  1  0
 37 38  1  0
 38 39  1  0
 39 40  1  0
 40 41  1  0
 41 42  1  0
 39 43  1  0
 43 44  1  0
 35  2  1  0
 44 36  1  0
 28  6  1  0
 15 10  1  0
 27 22  1  0
M  END
>  <Compound_ID>  (122) 
CHEMBL3651882

>  <Molecule Name>  (122) 
nan

>  <Molecular Weight>  (122) 
620.82

>  <AlogP>  (122) 
6.20

>  <Smiles>  (122) 
Cc1cc(Nc2nc(Nc3ccccc3S(=O)(=O)C(C)C)c3c(C)c[nH]c3n2)c(OC(C)C)cc1C1CCN(CCO)CC1

>  <Standard Type>  (122) 
IC50

>  <Standard Relation>  (122) 
'='

>  <Standard Units>  (122) 
nM

>  <Standard Value>  (122) 
6.0

>  <Assay ChEMBL ID>  (122) 
CHEMBL3705165

>  <Assay Description>  (122) 
Enzyme Assay: The inhibition of ALK tyrosine kinase activity may be demonstrated using known methods, for example using the recombinant kinase domain of the ALK in analogy to the VEGF-R kinase assay described in J. Wood et al. Cancer Res. 60, 2178-2189 (2000).

>  <BAO Format ID>  (122) 
BAO_0000357

>  <BAO Label>  (122) 
single protein format

>  <Assay Organism>  (122) 
Homo sapiens

>  <Target ChEMBL ID>  (122) 
CHEMBL4247

>  <Target Name>  (122) 
ALK tyrosine kinase receptor

>  <Target Organism>  (122) 
Homo sapiens

>  <Target Type>  (122) 
SINGLE PROTEIN

>  <Document ChEMBL ID>  (122) 
CHEMBL3638924

>  <Source Description>  (122) 
BindingDB Database

>  <Document Journal>  (122) 
nan

>  <Document Year>  (122) 
2013.0

>  <Active>  (122) 
1.0

>  <bits>  (122) 
<rdkit.DataStructs.cDataStructs.ExplicitBitVect object at 0x000002422F1E0B30>

>  <Group>  (122) 
G2

$$$$

     RDKit          2D

 42 45  0  0  0  0  0  0  0  0999 V2000
    3.7500   -1.2990    0.0000 C   0  0  0  0  0  0  0  0  0  0  0  0
    3.0000    0.0000    0.0000 O   0  0  0  0  0  0  0  0  0  0  0  0
    1.5000    0.0000    0.0000 C   0  0  0  0  0  0  0  0  0  0  0  0
    0.7500   -1.2990    0.0000 C   0  0  0  0  0  0  0  0  0  0  0  0
   -0.7500   -1.2990    0.0000 C   0  0  0  0  0  0  0  0  0  0  0  0
   -1.5000   -2.5981    0.0000 N   0  0  0  0  0  0  0  0  0  0  0  0
   -3.0000   -2.5981    0.0000 C   0  0  0  0  0  0  0  0  0  0  0  0
   -3.7500   -1.2990    0.0000 O   0  0  0  0  0  0  0  0  0  0  0  0
   -3.7500   -3.8971    0.0000 C   0  0  0  0  0  0  0  0  0  0  0  0
   -5.2500   -3.8971    0.0000 C   0  0  0  0  0  0  0  0  0  0  0  0
   -6.0000   -5.1962    0.0000 C   0  0  0  0  0  0  0  0  0  0  0  0
   -7.5000   -5.1962    0.0000 N   0  0  0  0  0  0  0  0  0  0  0  0
   -8.2500   -3.8971    0.0000 C   0  0  0  0  0  0  0  0  0  0  0  0
   -9.7500   -3.8971    0.0000 C   0  0  0  0  0  0  0  0  0  0  0  0
  -10.5000   -5.1962    0.0000 N   0  0  0  0  0  0  0  0  0  0  0  0
  -12.0000   -5.1962    0.0000 C   0  0  0  0  0  0  0  0  0  0  0  0
   -9.7500   -6.4952    0.0000 C   0  0  0  0  0  0  0  0  0  0  0  0
   -8.2500   -6.4952    0.0000 C   0  0  0  0  0  0  0  0  0  0  0  0
   -1.5000    0.0000    0.0000 C   0  0  0  0  0  0  0  0  0  0  0  0
   -0.7500    1.2990    0.0000 C   0  0  0  0  0  0  0  0  0  0  0  0
    0.7500    1.2990    0.0000 C   0  0  0  0  0  0  0  0  0  0  0  0
    1.5000    2.5981    0.0000 N   0  0  0  0  0  0  0  0  0  0  0  0
    3.0000    2.5981    0.0000 C   0  0  0  0  0  0  0  0  0  0  0  0
    3.7500    1.2990    0.0000 N   0  0  0  0  0  0  0  0  0  0  0  0
    5.2500    1.2990    0.0000 C   0  0  0  0  0  0  0  0  0  0  0  0
    6.0000    2.5981    0.0000 C   0  0  0  0  0  0  0  0  0  0  0  0
    7.5000    2.5981    0.0000 Cl  0  0  0  0  0  0  0  0  0  0  0  0
    5.2500    3.8971    0.0000 C   0  0  0  0  0  0  0  0  0  0  0  0
    6.0000    5.1962    0.0000 N   0  0  0  0  0  0  0  0  0  0  0  0
    5.2500    6.4952    0.0000 C   0  0  0  0  0  0  0  0  0  0  0  0
    3.7500    6.4952    0.0000 C   0  0  0  0  0  0  0  0  0  0  0  0
    3.0000    7.7942    0.0000 C   0  0  0  0  0  0  0  0  0  0  0  0
    3.7500    9.0933    0.0000 C   0  0  0  0  0  0  0  0  0  0  0  0
    5.2500    9.0933    0.0000 C   0  0  0  0  0  0  0  0  0  0  0  0
    6.0000    7.7942    0.0000 C   0  0  0  0  0  0  0  0  0  0  0  0
    7.5000    7.7942    0.0000 S   0  0  0  0  0  0  0  0  0  0  0  0
    7.5000    6.2942    0.0000 O   0  0  0  0  0  0  0  0  0  0  0  0
    7.5000    9.2942    0.0000 O   0  0  0  0  0  0  0  0  0  0  0  0
    9.0000    7.7942    0.0000 C   0  0  0  0  0  0  0  0  0  0  0  0
    9.7500    9.0933    0.0000 C   0  0  0  0  0  0  0  0  0  0  0  0
    9.7500    6.4952    0.0000 C   0  0  0  0  0  0  0  0  0  0  0  0
    3.7500    3.8971    0.0000 N   0  0  0  0  0  0  0  0  0  0  0  0
  1  2  1  0
  2  3  1  0
  3  4  2  0
  4  5  1  0
  5  6  1  0
  6  7  1  0
  7  8  2  0
  7  9  1  0
  9 10  2  0
 10 11  1  0
 11 12  1  0
 12 13  1  0
 13 14  1  0
 14 15  1  0
 15 16  1  0
 15 17  1  0
 17 18  1  0
  5 19  2  0
 19 20  1  0
 20 21  2  0
 21 22  1  0
 22 23  1  0
 23 24  2  0
 24 25  1  0
 25 26  2  0
 26 27  1  0
 26 28  1  0
 28 29  1  0
 29 30  1  0
 30 31  2  0
 31 32  1  0
 32 33  2  0
 33 34  1  0
 34 35  2  0
 35 36  1  0
 36 37  2  0
 36 38  2  0
 36 39  1  0
 39 40  1  0
 39 41  1  0
 28 42  2  0
 21  3  1  0
 42 23  1  0
 18 12  1  0
 35 30  1  0
M  END
>  <Compound_ID>  (123) 
CHEMBL4787426

>  <Molecule Name>  (123) 
nan

>  <Molecular Weight>  (123) 
614.17

>  <AlogP>  (123) 
4.55

>  <Smiles>  (123) 
COc1cc(NC(=O)/C=C/CN2CCN(C)CC2)ccc1Nc1ncc(Cl)c(Nc2ccccc2S(=O)(=O)C(C)C)n1

>  <Standard Type>  (123) 
IC50

>  <Standard Relation>  (123) 
'='

>  <Standard Units>  (123) 
nM

>  <Standard Value>  (123) 
7.4

>  <Assay ChEMBL ID>  (123) 
CHEMBL4672464

>  <Assay Description>  (123) 
Inhibition of ALK L1196M mutant (unknown origin) using peptide substrate incubated for 60 mins in presence of ATP by HTRF assay

>  <BAO Format ID>  (123) 
BAO_0000357

>  <BAO Label>  (123) 
single protein format

>  <Assay Organism>  (123) 
Homo sapiens

>  <Target ChEMBL ID>  (123) 
CHEMBL4247

>  <Target Name>  (123) 
ALK tyrosine kinase receptor

>  <Target Organism>  (123) 
Homo sapiens

>  <Target Type>  (123) 
SINGLE PROTEIN

>  <Document ChEMBL ID>  (123) 
CHEMBL4665877

>  <Source Description>  (123) 
Scientific Literature

>  <Document Journal>  (123) 
Bioorg Med Chem

>  <Document Year>  (123) 
2020.0

>  <Active>  (123) 
1.0

>  <bits>  (123) 
<rdkit.DataStructs.cDataStructs.ExplicitBitVect object at 0x000002422F1E0900>

>  <Group>  (123) 
G2

$$$$

     RDKit          2D

 35 39  0  0  0  0  0  0  0  0999 V2000
   -6.8516   -6.6578    0.0000 C   0  0  0  0  0  0  0  0  0  0  0  0
   -5.6381   -7.5395    0.0000 C   0  0  0  0  0  0  0  0  0  0  0  0
   -4.2677   -6.9294    0.0000 C   0  0  0  0  0  0  0  0  0  0  0  0
   -4.1110   -5.4376    0.0000 C   0  0  0  0  0  0  0  0  0  0  0  0
   -2.7406   -4.8275    0.0000 C   0  0  0  0  0  0  0  0  0  0  0  0
   -1.5271   -5.7092    0.0000 C   0  0  0  0  0  0  0  0  0  0  0  0
   -1.6839   -7.2010    0.0000 C   0  0  0  0  0  0  0  0  0  0  0  0
   -3.0542   -7.8111    0.0000 C   0  0  0  0  0  0  0  0  0  0  0  0
   -3.2110   -9.3029    0.0000 C   0  0  0  0  0  0  0  0  0  0  0  0
   -2.0963  -10.3066    0.0000 C   0  0  0  0  0  0  0  0  0  0  0  0
   -2.7064  -11.6769    0.0000 N   0  0  0  0  0  0  0  0  0  0  0  0
   -4.1982  -11.5201    0.0000 N   0  0  0  0  0  0  0  0  0  0  0  0
   -5.2019  -12.6348    0.0000 C   0  0  0  0  0  0  0  0  0  0  0  0
   -6.6691  -12.3229    0.0000 C   0  0  0  0  0  0  0  0  0  0  0  0
   -7.1326  -10.8963    0.0000 O   0  0  0  0  0  0  0  0  0  0  0  0
   -7.6728  -13.4376    0.0000 N   0  0  0  0  0  0  0  0  0  0  0  0
   -9.1400  -13.1258    0.0000 C   0  0  0  0  0  0  0  0  0  0  0  0
   -7.2093  -14.8642    0.0000 C   0  0  0  0  0  0  0  0  0  0  0  0
   -4.5101  -10.0529    0.0000 C   0  0  0  0  0  0  0  0  0  0  0  0
   -0.1568   -5.0991    0.0000 C   0  0  0  0  0  0  0  0  0  0  0  0
    1.3396   -4.9944    0.0000 C   0  0  0  0  0  0  0  0  0  0  0  0
    0.2061   -6.5545    0.0000 C   0  0  0  0  0  0  0  0  0  0  0  0
   -0.0000   -3.6073    0.0000 C   0  0  0  0  0  0  0  0  0  0  0  0
    1.2135   -2.7256    0.0000 N   0  0  0  0  0  0  0  0  0  0  0  0
    0.7500   -1.2990    0.0000 C   0  0  0  0  0  0  0  0  0  0  0  0
    1.5000    0.0000    0.0000 C   0  0  0  0  0  0  0  0  0  0  0  0
    0.7500    1.2990    0.0000 C   0  0  0  0  0  0  0  0  0  0  0  0
    1.5000    2.5981    0.0000 C   0  0  0  0  0  0  0  0  0  0  0  0
    2.2500    3.8971    0.0000 N   0  0  0  0  0  0  0  0  0  0  0  0
   -0.7500    1.2990    0.0000 C   0  0  0  0  0  0  0  0  0  0  0  0
   -1.5000    0.0000    0.0000 C   0  0  0  0  0  0  0  0  0  0  0  0
   -0.7500   -1.2990    0.0000 C   0  0  0  0  0  0  0  0  0  0  0  0
   -1.2135   -2.7256    0.0000 C   0  0  0  0  0  0  0  0  0  0  0  0
   -2.5838   -3.3357    0.0000 C   0  0  0  0  0  0  0  0  0  0  0  0
   -3.7974   -2.4540    0.0000 O   0  0  0  0  0  0  0  0  0  0  0  0
  1  2  1  0
  2  3  1  0
  3  4  2  0
  4  5  1  0
  5  6  2  0
  6  7  1  0
  7  8  2  0
  8  9  1  0
  9 10  1  0
 10 11  2  0
 11 12  1  0
 12 13  1  0
 13 14  1  0
 14 15  2  0
 14 16  1  0
 16 17  1  0
 16 18  1  0
 12 19  1  0
  6 20  1  0
 20 21  1  0
 20 22  1  0
 20 23  1  0
 23 24  1  0
 24 25  1  0
 25 26  2  0
 26 27  1  0
 27 28  1  0
 28 29  3  0
 27 30  2  0
 30 31  1  0
 31 32  2  0
 32 33  1  0
 33 34  1  0
 34 35  2  0
  8  3  1  0
 19  9  2  0
 33 23  2  0
 34  5  1  0
 32 25  1  0
M  END
>  <Compound_ID>  (124) 
CHEMBL3735401

>  <Molecule Name>  (124) 
nan

>  <Molecular Weight>  (124) 
465.56

>  <AlogP>  (124) 
4.42

>  <Smiles>  (124) 
CCc1cc2c(cc1-c1cnn(CC(=O)N(C)C)c1)C(C)(C)c1[nH]c3cc(C#N)ccc3c1C2=O

>  <Standard Type>  (124) 
IC50

>  <Standard Relation>  (124) 
'='

>  <Standard Units>  (124) 
nM

>  <Standard Value>  (124) 
8.1

>  <Assay ChEMBL ID>  (124) 
CHEMBL3738493

>  <Assay Description>  (124) 
Inhibition of recombinant ALK (unknown origin) using poly (Glu, Tyr)4:1 substrate incubated for 60 mins by ELISA

>  <BAO Format ID>  (124) 
BAO_0000357

>  <BAO Label>  (124) 
single protein format

>  <Assay Organism>  (124) 
Homo sapiens

>  <Target ChEMBL ID>  (124) 
CHEMBL4247

>  <Target Name>  (124) 
ALK tyrosine kinase receptor

>  <Target Organism>  (124) 
Homo sapiens

>  <Target Type>  (124) 
SINGLE PROTEIN

>  <Document ChEMBL ID>  (124) 
CHEMBL3734710

>  <Source Description>  (124) 
Scientific Literature

>  <Document Journal>  (124) 
Eur J Med Chem

>  <Document Year>  (124) 
2015.0

>  <Active>  (124) 
1.0

>  <bits>  (124) 
<rdkit.DataStructs.cDataStructs.ExplicitBitVect object at 0x000002422F1E06D0>

>  <Group>  (124) 
G2

$$$$

     RDKit          2D

 28 32  0  0  0  0  0  0  0  0999 V2000
    4.6740   -4.8322    0.0000 C   0  0  0  0  0  0  0  0  0  0  0  0
    3.3037   -4.2221    0.0000 N   0  0  0  0  0  0  0  0  0  0  0  0
    2.9918   -2.7549    0.0000 C   0  0  0  0  0  0  0  0  0  0  0  0
    1.5000   -2.5981    0.0000 C   0  0  0  0  0  0  0  0  0  0  0  0
    0.7500   -1.2990    0.0000 C   0  0  0  0  0  0  0  0  0  0  0  0
    1.5000    0.0000    0.0000 C   0  0  0  0  0  0  0  0  0  0  0  0
    0.7500    1.2990    0.0000 N   0  0  0  0  0  0  0  0  0  0  0  0
   -0.7500    1.2990    0.0000 C   0  0  0  0  0  0  0  0  0  0  0  0
   -1.7537    2.4138    0.0000 N   0  0  0  0  0  0  0  0  0  0  0  0
   -3.1240    1.8037    0.0000 C   0  0  0  0  0  0  0  0  0  0  0  0
   -2.9672    0.3119    0.0000 C   0  0  0  0  0  0  0  0  0  0  0  0
   -4.0819   -0.6918    0.0000 C   0  0  0  0  0  0  0  0  0  0  0  0
   -3.9251   -2.1836    0.0000 C   0  0  0  0  0  0  0  0  0  0  0  0
   -5.2955   -2.7937    0.0000 N   0  0  0  0  0  0  0  0  0  0  0  0
   -6.2992   -1.6790    0.0000 N   0  0  0  0  0  0  0  0  0  0  0  0
   -7.7909   -1.8358    0.0000 C   0  0  0  0  0  0  0  0  0  0  0  0
   -8.6726   -0.6223    0.0000 C   0  0  0  0  0  0  0  0  0  0  0  0
   -8.0625    0.7481    0.0000 C   0  0  0  0  0  0  0  0  0  0  0  0
   -8.9442    1.9616    0.0000 C   0  0  0  0  0  0  0  0  0  0  0  0
  -10.4360    1.8048    0.0000 C   0  0  0  0  0  0  0  0  0  0  0  0
  -11.0461    0.4345    0.0000 C   0  0  0  0  0  0  0  0  0  0  0  0
  -12.5379    0.2777    0.0000 O   0  0  0  0  0  0  0  0  0  0  0  0
  -10.1644   -0.7791    0.0000 C   0  0  0  0  0  0  0  0  0  0  0  0
   -5.5492   -0.3800    0.0000 C   0  0  0  0  0  0  0  0  0  0  0  0
   -1.5000    0.0000    0.0000 C   0  0  0  0  0  0  0  0  0  0  0  0
   -0.7500   -1.2990    0.0000 C   0  0  0  0  0  0  0  0  0  0  0  0
    0.8899   -3.9684    0.0000 C   0  0  0  0  0  0  0  0  0  0  0  0
    2.0046   -4.9721    0.0000 N   0  0  0  0  0  0  0  0  0  0  0  0
  1  2  1  0
  2  3  1  0
  3  4  2  0
  4  5  1  0
  5  6  2  0
  6  7  1  0
  7  8  2  0
  8  9  1  0
  9 10  1  0
 10 11  2  0
 11 12  1  0
 12 13  1  0
 13 14  2  0
 14 15  1  0
 15 16  1  0
 16 17  1  0
 17 18  2  0
 18 19  1  0
 19 20  2  0
 20 21  1  0
 21 22  1  0
 21 23  2  0
 15 24  1  0
 11 25  1  0
 25 26  2  0
  4 27  1  0
 27 28  2  0
 28  2  1  0
 26  5  1  0
 25  8  1  0
 24 12  2  0
 23 17  1  0
M  END
>  <Compound_ID>  (125) 
CHEMBL2418760

>  <Molecule Name>  (125) 
nan

>  <Molecular Weight>  (125) 
370.42

>  <AlogP>  (125) 
3.58

>  <Smiles>  (125) 
Cn1cc(-c2cnc3[nH]cc(-c4cnn(Cc5cccc(O)c5)c4)c3c2)cn1

>  <Standard Type>  (125) 
IC50

>  <Standard Relation>  (125) 
'='

>  <Standard Units>  (125) 
nM

>  <Standard Value>  (125) 
41.0

>  <Assay ChEMBL ID>  (125) 
CHEMBL2423641

>  <Assay Description>  (125) 
Inhibition of wild type human recombinant ALK after 30 mins by TR-FRET assay

>  <BAO Format ID>  (125) 
BAO_0000357

>  <BAO Label>  (125) 
single protein format

>  <Assay Organism>  (125) 
Homo sapiens

>  <Target ChEMBL ID>  (125) 
CHEMBL4247

>  <Target Name>  (125) 
ALK tyrosine kinase receptor

>  <Target Organism>  (125) 
Homo sapiens

>  <Target Type>  (125) 
SINGLE PROTEIN

>  <Document ChEMBL ID>  (125) 
CHEMBL2417505

>  <Source Description>  (125) 
Scientific Literature

>  <Document Journal>  (125) 
Bioorg Med Chem Lett

>  <Document Year>  (125) 
2013.0

>  <Active>  (125) 
1.0

>  <bits>  (125) 
<rdkit.DataStructs.cDataStructs.ExplicitBitVect object at 0x000002422F1E02E0>

>  <Group>  (125) 
G2

$$$$

     RDKit          2D

 46 49  0  0  0  0  0  0  0  0999 V2000
    3.7500   -1.2990    0.0000 C   0  0  0  0  0  0  0  0  0  0  0  0
    3.0000    0.0000    0.0000 C   0  0  0  0  0  0  0  0  0  0  0  0
    3.7500    1.2990    0.0000 C   0  0  0  0  0  0  0  0  0  0  0  0
    1.5000    0.0000    0.0000 C   0  0  0  0  0  0  0  0  0  0  0  0
    0.7500   -1.2990    0.0000 C   0  0  0  0  0  0  0  0  0  0  0  0
   -0.7500   -1.2990    0.0000 C   0  0  0  0  0  0  0  0  0  0  0  0
   -1.5000   -2.5981    0.0000 C   0  0  0  0  0  0  0  0  0  0  0  0
   -0.7500   -3.8971    0.0000 O   0  0  0  0  0  0  0  0  0  0  0  0
   -3.0000   -2.5981    0.0000 N   0  0  0  0  0  0  0  0  0  0  0  0
   -3.7500   -3.8971    0.0000 C   0  0  0  0  0  0  0  0  0  0  0  0
   -5.2500   -3.8971    0.0000 C   0  0  0  0  0  0  0  0  0  0  0  0
   -6.0000   -2.5981    0.0000 O   0  0  0  0  0  0  0  0  0  0  0  0
   -6.0000   -5.1962    0.0000 N   0  0  0  0  0  0  0  0  0  0  0  0
   -7.5000   -5.1962    0.0000 C   0  0  0  0  0  0  0  0  0  0  0  0
   -8.2500   -3.8971    0.0000 C   0  0  0  0  0  0  0  0  0  0  0  0
   -9.7500   -3.8971    0.0000 C   0  0  0  0  0  0  0  0  0  0  0  0
  -10.5000   -5.1962    0.0000 C   0  0  0  0  0  0  0  0  0  0  0  0
  -12.0000   -5.1962    0.0000 F   0  0  0  0  0  0  0  0  0  0  0  0
   -9.7500   -6.4952    0.0000 C   0  0  0  0  0  0  0  0  0  0  0  0
  -10.5000   -7.7942    0.0000 N   0  0  0  0  0  0  0  0  0  0  0  0
   -9.7500   -9.0933    0.0000 C   0  0  0  0  0  0  0  0  0  0  0  0
  -10.5000  -10.3923    0.0000 N   0  0  0  0  0  0  0  0  0  0  0  0
   -9.7500  -11.6913    0.0000 C   0  0  0  0  0  0  0  0  0  0  0  0
   -8.2500  -11.6913    0.0000 C   0  0  0  0  0  0  0  0  0  0  0  0
   -7.5000  -12.9904    0.0000 Cl  0  0  0  0  0  0  0  0  0  0  0  0
   -7.5000  -10.3923    0.0000 C   0  0  0  0  0  0  0  0  0  0  0  0
   -6.0000  -10.3923    0.0000 N   0  0  0  0  0  0  0  0  0  0  0  0
   -5.2500   -9.0933    0.0000 C   0  0  0  0  0  0  0  0  0  0  0  0
   -6.0000   -7.7942    0.0000 C   0  0  0  0  0  0  0  0  0  0  0  0
   -5.2500   -6.4952    0.0000 C   0  0  0  0  0  0  0  0  0  0  0  0
   -3.7500   -6.4952    0.0000 C   0  0  0  0  0  0  0  0  0  0  0  0
   -3.0000   -7.7942    0.0000 C   0  0  0  0  0  0  0  0  0  0  0  0
   -3.7500   -9.0933    0.0000 C   0  0  0  0  0  0  0  0  0  0  0  0
   -3.0000  -10.3923    0.0000 S   0  0  0  0  0  0  0  0  0  0  0  0
   -4.2990  -11.1423    0.0000 O   0  0  0  0  0  0  0  0  0  0  0  0
   -1.7010   -9.6423    0.0000 O   0  0  0  0  0  0  0  0  0  0  0  0
   -2.2500  -11.6913    0.0000 C   0  0  0  0  0  0  0  0  0  0  0  0
   -3.0000  -12.9904    0.0000 C   0  0  0  0  0  0  0  0  0  0  0  0
   -0.7500  -11.6913    0.0000 C   0  0  0  0  0  0  0  0  0  0  0  0
   -8.2500   -9.0933    0.0000 N   0  0  0  0  0  0  0  0  0  0  0  0
   -8.2500   -6.4952    0.0000 C   0  0  0  0  0  0  0  0  0  0  0  0
   -1.5000    0.0000    0.0000 C   0  0  0  0  0  0  0  0  0  0  0  0
   -3.0000    0.0000    0.0000 O   0  0  0  0  0  0  0  0  0  0  0  0
   -0.7500    1.2990    0.0000 C   0  0  0  0  0  0  0  0  0  0  0  0
    0.7500    1.2990    0.0000 C   0  0  0  0  0  0  0  0  0  0  0  0
    1.5000    2.5981    0.0000 O   0  0  0  0  0  0  0  0  0  0  0  0
  1  2  1  0
  2  3  1  0
  2  4  1  0
  4  5  2  0
  5  6  1  0
  6  7  1  0
  7  8  2  0
  7  9  1  0
  9 10  1  0
 10 11  1  0
 11 12  2  0
 11 13  1  0
 13 14  1  0
 14 15  2  0
 15 16  1  0
 16 17  2  0
 17 18  1  0
 17 19  1  0
 19 20  1  0
 20 21  1  0
 21 22  2  0
 22 23  1  0
 23 24  2  0
 24 25  1  0
 24 26  1  0
 26 27  1  0
 27 28  1  0
 28 29  2  0
 29 30  1  0
 30 31  2  0
 31 32  1  0
 32 33  2  0
 33 34  1  0
 34 35  2  0
 34 36  2  0
 34 37  1  0
 37 38  1  0
 37 39  1  0
 26 40  2  0
 19 41  2  0
  6 42  2  0
 42 43  1  0
 42 44  1  0
 44 45  2  0
 45 46  1  0
 45  4  1  0
 41 14  1  0
 40 21  1  0
 33 28  1  0
M  END
>  <Compound_ID>  (126) 
CHEMBL4177038

>  <Molecule Name>  (126) 
nan

>  <Molecular Weight>  (126) 
671.15

>  <AlogP>  (126) 
5.84

>  <Smiles>  (126) 
CC(C)c1cc(C(=O)NCC(=O)Nc2ccc(F)c(Nc3ncc(Cl)c(Nc4ccccc4S(=O)(=O)C(C)C)n3)c2)c(O)cc1O

>  <Standard Type>  (126) 
IC50

>  <Standard Relation>  (126) 
'='

>  <Standard Units>  (126) 
nM

>  <Standard Value>  (126) 
1.0

>  <Assay ChEMBL ID>  (126) 
CHEMBL4146207

>  <Assay Description>  (126) 
Inhibition of recombinant ALK (unknown origin) using poly (Glu,Tyr) 4:1 as substrate incubated for 60 mins by ELISA

>  <BAO Format ID>  (126) 
BAO_0000357

>  <BAO Label>  (126) 
single protein format

>  <Assay Organism>  (126) 
Homo sapiens

>  <Target ChEMBL ID>  (126) 
CHEMBL4247

>  <Target Name>  (126) 
ALK tyrosine kinase receptor

>  <Target Organism>  (126) 
Homo sapiens

>  <Target Type>  (126) 
SINGLE PROTEIN

>  <Document ChEMBL ID>  (126) 
CHEMBL4145454

>  <Source Description>  (126) 
Scientific Literature

>  <Document Journal>  (126) 
Eur J Med Chem

>  <Document Year>  (126) 
2018.0

>  <Active>  (126) 
1.0

>  <bits>  (126) 
<rdkit.DataStructs.cDataStructs.ExplicitBitVect object at 0x000002422F1E3920>

>  <Group>  (126) 
G2

$$$$

     RDKit          2D

 37 41  0  0  0  0  0  0  0  0999 V2000
  -10.5759   -3.0359    0.0000 C   0  0  0  0  0  0  0  0  0  0  0  0
   -9.4612   -4.0396    0.0000 C   0  0  0  0  0  0  0  0  0  0  0  0
   -9.7730   -5.5068    0.0000 C   0  0  0  0  0  0  0  0  0  0  0  0
   -8.0346   -3.5760    0.0000 N   0  0  0  0  0  0  0  0  0  0  0  0
   -6.9199   -4.5797    0.0000 C   0  0  0  0  0  0  0  0  0  0  0  0
   -7.2317   -6.0469    0.0000 O   0  0  0  0  0  0  0  0  0  0  0  0
   -5.4933   -4.1162    0.0000 C   0  0  0  0  0  0  0  0  0  0  0  0
   -5.1814   -2.6490    0.0000 C   0  0  0  0  0  0  0  0  0  0  0  0
   -3.7548   -2.1855    0.0000 C   0  0  0  0  0  0  0  0  0  0  0  0
   -2.6401   -3.1891    0.0000 C   0  0  0  0  0  0  0  0  0  0  0  0
   -1.2135   -2.7256    0.0000 N   0  0  0  0  0  0  0  0  0  0  0  0
   -0.0000   -3.6073    0.0000 C   0  0  0  0  0  0  0  0  0  0  0  0
   -0.0000   -5.1073    0.0000 N   0  0  0  0  0  0  0  0  0  0  0  0
    1.2990   -5.8573    0.0000 C   0  0  0  0  0  0  0  0  0  0  0  0
    2.5981   -5.1073    0.0000 O   0  0  0  0  0  0  0  0  0  0  0  0
    1.2990   -7.3573    0.0000 C   0  0  0  0  0  0  0  0  0  0  0  0
   -0.0000   -8.1073    0.0000 C   0  0  0  0  0  0  0  0  0  0  0  0
   -0.0000   -9.6073    0.0000 C   0  0  0  0  0  0  0  0  0  0  0  0
    1.2990  -10.3573    0.0000 C   0  0  0  0  0  0  0  0  0  0  0  0
    1.2990  -11.8573    0.0000 F   0  0  0  0  0  0  0  0  0  0  0  0
    2.5981   -9.6073    0.0000 C   0  0  0  0  0  0  0  0  0  0  0  0
    2.5981   -8.1073    0.0000 C   0  0  0  0  0  0  0  0  0  0  0  0
    1.2135   -2.7256    0.0000 N   0  0  0  0  0  0  0  0  0  0  0  0
    0.7500   -1.2990    0.0000 C   0  0  0  0  0  0  0  0  0  0  0  0
    1.5000    0.0000    0.0000 C   0  0  0  0  0  0  0  0  0  0  0  0
    0.7500    1.2990    0.0000 C   0  0  0  0  0  0  0  0  0  0  0  0
   -0.7500    1.2990    0.0000 C   0  0  0  0  0  0  0  0  0  0  0  0
   -1.5000    2.5981    0.0000 C   0  0  0  0  0  0  0  0  0  0  0  0
   -0.7500    3.8971    0.0000 N   0  0  0  0  0  0  0  0  0  0  0  0
   -1.3601    5.2674    0.0000 C   0  0  0  0  0  0  0  0  0  0  0  0
   -0.2454    6.2711    0.0000 N   0  0  0  0  0  0  0  0  0  0  0  0
    1.0537    5.5211    0.0000 C   0  0  0  0  0  0  0  0  0  0  0  0
    0.7418    4.0539    0.0000 N   0  0  0  0  0  0  0  0  0  0  0  0
   -1.5000    0.0000    0.0000 C   0  0  0  0  0  0  0  0  0  0  0  0
   -0.7500   -1.2990    0.0000 C   0  0  0  0  0  0  0  0  0  0  0  0
   -2.9520   -4.6564    0.0000 C   0  0  0  0  0  0  0  0  0  0  0  0
   -4.3786   -5.1199    0.0000 C   0  0  0  0  0  0  0  0  0  0  0  0
  1  2  1  0
  2  3  1  0
  2  4  1  0
  4  5  1  0
  5  6  2  0
  7  5  1  1
  7  8  1  0
  8  9  1  0
  9 10  1  0
 10 11  1  1
 11 12  1  0
 12 13  2  0
 13 14  1  0
 14 15  2  0
 14 16  1  0
 16 17  2  0
 17 18  1  0
 18 19  2  0
 19 20  1  0
 19 21  1  0
 21 22  2  0
 12 23  1  0
 23 24  1  0
 24 25  2  0
 25 26  1  0
 26 27  2  0
 27 28  1  0
 28 29  1  0
 29 30  1  0
 30 31  2  0
 31 32  1  0
 32 33  2  0
 27 34  1  0
 34 35  2  0
 10 36  1  0
 36 37  1  0
 37  7  1  0
 35 11  1  0
 22 16  1  0
 35 24  1  0
 33 29  1  0
M  END
>  <Compound_ID>  (127) 
CHEMBL2172332

>  <Molecule Name>  (127) 
nan

>  <Molecular Weight>  (127) 
503.58

>  <AlogP>  (127) 
3.75

>  <Smiles>  (127) 
CC(C)NC(=O)[C@H]1CC[C@@H](n2/c(=N/C(=O)c3ccc(F)cc3)[nH]c3ccc(Cn4cncn4)cc32)CC1

>  <Standard Type>  (127) 
IC50

>  <Standard Relation>  (127) 
'='

>  <Standard Units>  (127) 
nM

>  <Standard Value>  (127) 
2.0

>  <Assay ChEMBL ID>  (127) 
CHEMBL2176371

>  <Assay Description>  (127) 
Inhibition of ALK enzyme

>  <BAO Format ID>  (127) 
BAO_0000357

>  <BAO Label>  (127) 
single protein format

>  <Assay Organism>  (127) 
None

>  <Target ChEMBL ID>  (127) 
CHEMBL4247

>  <Target Name>  (127) 
ALK tyrosine kinase receptor

>  <Target Organism>  (127) 
Homo sapiens

>  <Target Type>  (127) 
SINGLE PROTEIN

>  <Document ChEMBL ID>  (127) 
CHEMBL2169770

>  <Source Description>  (127) 
Scientific Literature

>  <Document Journal>  (127) 
J Med Chem

>  <Document Year>  (127) 
2012.0

>  <Active>  (127) 
1.0

>  <bits>  (127) 
<rdkit.DataStructs.cDataStructs.ExplicitBitVect object at 0x000002422F1E3140>

>  <Group>  (127) 
G2

$$$$

     RDKit          2D

 31 35  0  0  0  0  0  0  0  0999 V2000
    2.6491   -3.5623    0.0000 C   0  0  0  0  0  0  0  0  0  0  0  0
    1.5000   -2.5981    0.0000 C   0  0  0  0  0  0  0  0  0  0  0  0
    2.6491   -1.6339    0.0000 C   0  0  0  0  0  0  0  0  0  0  0  0
    0.7500   -1.2990    0.0000 C   0  0  0  0  0  0  0  0  0  0  0  0
    1.5000    0.0000    0.0000 C   0  0  0  0  0  0  0  0  0  0  0  0
    0.7500    1.2990    0.0000 C   0  0  0  0  0  0  0  0  0  0  0  0
    1.5000    2.5981    0.0000 C   0  0  0  0  0  0  0  0  0  0  0  0
    3.0000    2.5981    0.0000 N   0  0  0  0  0  0  0  0  0  0  0  0
    3.7500    1.2990    0.0000 C   0  0  0  0  0  0  0  0  0  0  0  0
    5.2500    1.2990    0.0000 C   0  0  0  0  0  0  0  0  0  0  0  0
    6.0000    2.5981    0.0000 S   0  0  0  0  0  0  0  0  0  0  0  0
    7.1491    3.5623    0.0000 O   0  0  0  0  0  0  0  0  0  0  0  0
    7.1491    1.6339    0.0000 O   0  0  0  0  0  0  0  0  0  0  0  0
    5.2500    3.8971    0.0000 C   0  0  0  0  0  0  0  0  0  0  0  0
    3.7500    3.8971    0.0000 C   0  0  0  0  0  0  0  0  0  0  0  0
   -0.7500    1.2990    0.0000 C   0  0  0  0  0  0  0  0  0  0  0  0
   -1.5000    0.0000    0.0000 C   0  0  0  0  0  0  0  0  0  0  0  0
   -0.7500   -1.2990    0.0000 C   0  0  0  0  0  0  0  0  0  0  0  0
   -1.5000   -2.5981    0.0000 C   0  0  0  0  0  0  0  0  0  0  0  0
   -3.0000   -2.5981    0.0000 O   0  0  0  0  0  0  0  0  0  0  0  0
   -0.7500   -3.8971    0.0000 C   0  0  0  0  0  0  0  0  0  0  0  0
    0.7500   -3.8971    0.0000 C   0  0  0  0  0  0  0  0  0  0  0  0
    1.2135   -5.3237    0.0000 N   0  0  0  0  0  0  0  0  0  0  0  0
    0.0000   -6.2054    0.0000 C   0  0  0  0  0  0  0  0  0  0  0  0
   -0.1568   -7.6972    0.0000 C   0  0  0  0  0  0  0  0  0  0  0  0
   -1.5271   -8.3073    0.0000 C   0  0  0  0  0  0  0  0  0  0  0  0
   -1.6839   -9.7990    0.0000 C   0  0  0  0  0  0  0  0  0  0  0  0
   -1.8407  -11.2908    0.0000 N   0  0  0  0  0  0  0  0  0  0  0  0
   -2.7406   -7.4256    0.0000 C   0  0  0  0  0  0  0  0  0  0  0  0
   -2.5838   -5.9338    0.0000 C   0  0  0  0  0  0  0  0  0  0  0  0
   -1.2135   -5.3237    0.0000 C   0  0  0  0  0  0  0  0  0  0  0  0
  1  2  1  0
  2  3  1  0
  2  4  1  0
  4  5  2  0
  5  6  1  0
  6  7  1  0
  7  8  1  0
  8  9  1  0
  9 10  1  0
 10 11  1  0
 11 12  2  0
 11 13  2  0
 11 14  1  0
 14 15  1  0
  6 16  2  0
 16 17  1  0
 17 18  2  0
 18 19  1  0
 19 20  2  0
 19 21  1  0
 21 22  2  0
 22 23  1  0
 23 24  1  0
 24 25  2  0
 25 26  1  0
 26 27  1  0
 27 28  3  0
 26 29  2  0
 29 30  1  0
 30 31  2  0
 22  2  1  0
 31 24  1  0
 18  4  1  0
 31 21  1  0
 15  8  1  0
M  END
>  <Compound_ID>  (128) 
CHEMBL3929985

>  <Molecule Name>  (128) 
nan

>  <Molecular Weight>  (128) 
433.53

>  <AlogP>  (128) 
3.14

>  <Smiles>  (128) 
CC1(C)c2cc(CN3CCS(=O)(=O)CC3)ccc2C(=O)c2c1[nH]c1cc(C#N)ccc21

>  <Standard Type>  (128) 
IC50

>  <Standard Relation>  (128) 
'='

>  <Standard Units>  (128) 
nM

>  <Standard Value>  (128) 
6.783

>  <Assay ChEMBL ID>  (128) 
CHEMBL3887074

>  <Assay Description>  (128) 
Inhibition Assay: ALK-inhibiting activity was measured by following an activity of inhibiting phosphorylation by biotinylated peptide (EGPWLEEEEEAYGWMDF). For the detection of phosphorylation of the biotinylated peptide, time-resolved fluorescence measurement was performed using an anti-phosphorylated tyrosine antibody labeled with europium cryptate and streptavidin conjugated to XL665, i.e., an allophycocyanin derivative.

>  <BAO Format ID>  (128) 
BAO_0000357

>  <BAO Label>  (128) 
single protein format

>  <Assay Organism>  (128) 
Homo sapiens

>  <Target ChEMBL ID>  (128) 
CHEMBL4247

>  <Target Name>  (128) 
ALK tyrosine kinase receptor

>  <Target Organism>  (128) 
Homo sapiens

>  <Target Type>  (128) 
SINGLE PROTEIN

>  <Document ChEMBL ID>  (128) 
CHEMBL3886150

>  <Source Description>  (128) 
BindingDB Database

>  <Document Journal>  (128) 
nan

>  <Document Year>  (128) 
2015.0

>  <Active>  (128) 
1.0

>  <bits>  (128) 
<rdkit.DataStructs.cDataStructs.ExplicitBitVect object at 0x000002422F1E3DF0>

>  <Group>  (128) 
G2

$$$$

     RDKit          2D

 33 37  0  0  0  0  0  0  0  0999 V2000
    3.0000  -10.3923    0.0000 C   0  0  0  0  0  0  0  0  0  0  0  0
    3.7500   -9.0933    0.0000 C   0  0  0  0  0  0  0  0  0  0  0  0
    3.0000   -7.7942    0.0000 N   0  0  0  0  0  0  0  0  0  0  0  0
    3.7500   -6.4952    0.0000 C   0  0  0  0  0  0  0  0  0  0  0  0
    5.2500   -6.4952    0.0000 O   0  0  0  0  0  0  0  0  0  0  0  0
    3.0000   -5.1962    0.0000 N   0  0  0  0  0  0  0  0  0  0  0  0
    1.5000   -5.1962    0.0000 C   0  0  0  0  0  0  0  0  0  0  0  0
    0.7500   -3.8971    0.0000 C   0  0  0  0  0  0  0  0  0  0  0  0
    1.5000   -2.5981    0.0000 C   0  0  0  0  0  0  0  0  0  0  0  0
    0.7500   -1.2990    0.0000 C   0  0  0  0  0  0  0  0  0  0  0  0
    1.5000    0.0000    0.0000 C   0  0  0  0  0  0  0  0  0  0  0  0
    0.7500    1.2990    0.0000 C   0  0  0  0  0  0  0  0  0  0  0  0
   -0.7500    1.2990    0.0000 C   0  0  0  0  0  0  0  0  0  0  0  0
   -1.5000    0.0000    0.0000 C   0  0  0  0  0  0  0  0  0  0  0  0
   -0.7500   -1.2990    0.0000 C   0  0  0  0  0  0  0  0  0  0  0  0
   -3.0000    0.0000    0.0000 C   0  0  0  0  0  0  0  0  0  0  0  0
   -4.4095   -0.5130    0.0000 C   0  0  0  0  0  0  0  0  0  0  0  0
   -2.7395   -1.4772    0.0000 C   0  0  0  0  0  0  0  0  0  0  0  0
   -3.7500    1.2990    0.0000 C   0  0  0  0  0  0  0  0  0  0  0  0
   -5.2172    1.6109    0.0000 N   0  0  0  0  0  0  0  0  0  0  0  0
   -5.3740    3.1027    0.0000 C   0  0  0  0  0  0  0  0  0  0  0  0
   -6.5875    3.9844    0.0000 C   0  0  0  0  0  0  0  0  0  0  0  0
   -6.4307    5.4761    0.0000 C   0  0  0  0  0  0  0  0  0  0  0  0
   -7.6443    6.3578    0.0000 C   0  0  0  0  0  0  0  0  0  0  0  0
   -8.8578    7.2395    0.0000 N   0  0  0  0  0  0  0  0  0  0  0  0
   -5.0604    6.0863    0.0000 C   0  0  0  0  0  0  0  0  0  0  0  0
   -3.8469    5.2046    0.0000 C   0  0  0  0  0  0  0  0  0  0  0  0
   -4.0037    3.7128    0.0000 C   0  0  0  0  0  0  0  0  0  0  0  0
   -3.0000    2.5981    0.0000 C   0  0  0  0  0  0  0  0  0  0  0  0
   -1.5000    2.5981    0.0000 C   0  0  0  0  0  0  0  0  0  0  0  0
   -0.7500    3.8971    0.0000 O   0  0  0  0  0  0  0  0  0  0  0  0
    3.0000   -2.5981    0.0000 C   0  0  0  0  0  0  0  0  0  0  0  0
    3.7500   -3.8971    0.0000 C   0  0  0  0  0  0  0  0  0  0  0  0
  1  2  1  0
  2  3  1  0
  3  4  1  0
  4  5  2  0
  4  6  1  0
  6  7  1  0
  7  8  1  0
  8  9  1  0
  9 10  1  0
 10 11  2  0
 11 12  1  0
 12 13  2  0
 13 14  1  0
 14 15  2  0
 14 16  1  0
 16 17  1  0
 16 18  1  0
 16 19  1  0
 19 20  1  0
 20 21  1  0
 21 22  2  0
 22 23  1  0
 23 24  1  0
 24 25  3  0
 23 26  2  0
 26 27  1  0
 27 28  2  0
 28 29  1  0
 29 30  1  0
 30 31  2  0
  9 32  1  0
 32 33  1  0
 33  6  1  0
 15 10  1  0
 29 19  2  0
 30 13  1  0
 28 21  1  0
M  END
>  <Compound_ID>  (129) 
CHEMBL3972824

>  <Molecule Name>  (129) 
nan

>  <Molecular Weight>  (129) 
440.55

>  <AlogP>  (129) 
4.82

>  <Smiles>  (129) 
CCNC(=O)N1CCC(c2ccc3c(c2)C(C)(C)c2[nH]c4cc(C#N)ccc4c2C3=O)CC1

>  <Standard Type>  (129) 
IC50

>  <Standard Relation>  (129) 
'='

>  <Standard Units>  (129) 
nM

>  <Standard Value>  (129) 
2.001

>  <Assay ChEMBL ID>  (129) 
CHEMBL3887074

>  <Assay Description>  (129) 
Inhibition Assay: ALK-inhibiting activity was measured by following an activity of inhibiting phosphorylation by biotinylated peptide (EGPWLEEEEEAYGWMDF). For the detection of phosphorylation of the biotinylated peptide, time-resolved fluorescence measurement was performed using an anti-phosphorylated tyrosine antibody labeled with europium cryptate and streptavidin conjugated to XL665, i.e., an allophycocyanin derivative.

>  <BAO Format ID>  (129) 
BAO_0000357

>  <BAO Label>  (129) 
single protein format

>  <Assay Organism>  (129) 
Homo sapiens

>  <Target ChEMBL ID>  (129) 
CHEMBL4247

>  <Target Name>  (129) 
ALK tyrosine kinase receptor

>  <Target Organism>  (129) 
Homo sapiens

>  <Target Type>  (129) 
SINGLE PROTEIN

>  <Document ChEMBL ID>  (129) 
CHEMBL3886150

>  <Source Description>  (129) 
BindingDB Database

>  <Document Journal>  (129) 
nan

>  <Document Year>  (129) 
2015.0

>  <Active>  (129) 
1.0

>  <bits>  (129) 
<rdkit.DataStructs.cDataStructs.ExplicitBitVect object at 0x000002422F1E38B0>

>  <Group>  (129) 
G2

$$$$

     RDKit          2D

 39 43  0  0  0  0  0  0  0  0999 V2000
   -4.6883    2.2939    0.0000 N   0  0  0  0  0  0  0  0  0  0  0  0
   -3.5736    1.2902    0.0000 C   0  0  0  0  0  0  0  0  0  0  0  0
   -3.8855   -0.1771    0.0000 O   0  0  0  0  0  0  0  0  0  0  0  0
   -2.1470    1.7537    0.0000 C   0  0  0  0  0  0  0  0  0  0  0  0
   -1.8351    3.2209    0.0000 C   0  0  0  0  0  0  0  0  0  0  0  0
   -2.9499    4.2246    0.0000 N   0  0  0  0  0  0  0  0  0  0  0  0
   -2.6380    5.6918    0.0000 C   0  0  0  0  0  0  0  0  0  0  0  0
   -1.2114    6.1554    0.0000 C   0  0  0  0  0  0  0  0  0  0  0  0
   -0.8995    7.6226    0.0000 C   0  0  0  0  0  0  0  0  0  0  0  0
   -2.0143    8.6263    0.0000 C   0  0  0  0  0  0  0  0  0  0  0  0
   -1.7024   10.0935    0.0000 N   0  0  0  0  0  0  0  0  0  0  0  0
   -0.2758   10.5570    0.0000 C   0  0  0  0  0  0  0  0  0  0  0  0
    0.0361   12.0242    0.0000 C   0  0  0  0  0  0  0  0  0  0  0  0
   -1.0786   13.0279    0.0000 N   0  0  0  0  0  0  0  0  0  0  0  0
   -2.5052   12.5644    0.0000 C   0  0  0  0  0  0  0  0  0  0  0  0
   -2.8171   11.0972    0.0000 C   0  0  0  0  0  0  0  0  0  0  0  0
   -3.4408    8.1628    0.0000 C   0  0  0  0  0  0  0  0  0  0  0  0
   -3.7527    6.6955    0.0000 C   0  0  0  0  0  0  0  0  0  0  0  0
   -5.1793    6.2320    0.0000 O   0  0  0  0  0  0  0  0  0  0  0  0
   -6.2940    7.2357    0.0000 C   0  0  0  0  0  0  0  0  0  0  0  0
   -7.4087    8.2394    0.0000 F   0  0  0  0  0  0  0  0  0  0  0  0
   -7.2977    6.1210    0.0000 F   0  0  0  0  0  0  0  0  0  0  0  0
   -5.2903    8.3504    0.0000 F   0  0  0  0  0  0  0  0  0  0  0  0
   -0.4086    3.6844    0.0000 N   0  0  0  0  0  0  0  0  0  0  0  0
    0.7062    2.6807    0.0000 C   0  0  0  0  0  0  0  0  0  0  0  0
    2.1328    3.1443    0.0000 C   0  0  0  0  0  0  0  0  0  0  0  0
    2.4446    4.6115    0.0000 C   0  0  0  0  0  0  0  0  0  0  0  0
    3.8712    5.0750    0.0000 C   0  0  0  0  0  0  0  0  0  0  0  0
    4.9859    4.0713    0.0000 Cl  0  0  0  0  0  0  0  0  0  0  0  0
    4.1831    6.5422    0.0000 C   0  0  0  0  0  0  0  0  0  0  0  0
    3.0684    7.5459    0.0000 C   0  0  0  0  0  0  0  0  0  0  0  0
    1.6418    7.0824    0.0000 C   0  0  0  0  0  0  0  0  0  0  0  0
    1.3299    5.6152    0.0000 C   0  0  0  0  0  0  0  0  0  0  0  0
   -0.0967    5.1517    0.0000 Cl  0  0  0  0  0  0  0  0  0  0  0  0
    0.3943    1.2135    0.0000 C   0  0  0  0  0  0  0  0  0  0  0  0
    1.2760    0.0000    0.0000 N   0  0  0  0  0  0  0  0  0  0  0  0
    0.3943   -1.2135    0.0000 C   0  0  0  0  0  0  0  0  0  0  0  0
   -1.0323   -0.7500    0.0000 N   0  0  0  0  0  0  0  0  0  0  0  0
   -1.0323    0.7500    0.0000 C   0  0  0  0  0  0  0  0  0  0  0  0
  1  2  1  0
  2  3  2  0
  2  4  1  0
  4  5  2  0
  5  6  1  0
  6  7  1  0
  7  8  2  0
  8  9  1  0
  9 10  2  0
 10 11  1  0
 11 12  1  0
 12 13  1  0
 13 14  1  0
 14 15  1  0
 15 16  1  0
 10 17  1  0
 17 18  2  0
 18 19  1  0
 19 20  1  0
 20 21  1  0
 20 22  1  0
 20 23  1  0
  5 24  1  0
 24 25  2  0
 25 26  1  0
 26 27  1  0
 27 28  2  0
 28 29  1  0
 28 30  1  0
 30 31  2  0
 31 32  1  0
 32 33  2  0
 33 34  1  0
 25 35  1  0
 35 36  1  0
 36 37  2  0
 37 38  1  0
 38 39  1  0
 39  4  1  0
 18  7  1  0
 33 27  1  0
 39 35  2  0
 16 11  1  0
M  END
>  <Compound_ID>  (130) 
CHEMBL3913589

>  <Molecule Name>  (130) 
nan

>  <Molecular Weight>  (130) 
580.4

>  <AlogP>  (130) 
5.01

>  <Smiles>  (130) 
NC(=O)c1c(Nc2ccc(N3CCNCC3)cc2OC(F)(F)F)nc(Cc2c(Cl)cccc2Cl)c2nc[nH]c12

>  <Standard Type>  (130) 
Ki

>  <Standard Relation>  (130) 
'='

>  <Standard Units>  (130) 
nM

>  <Standard Value>  (130) 
4.0

>  <Assay ChEMBL ID>  (130) 
CHEMBL3887723

>  <Assay Description>  (130) 
Enzyme Inhibition Assay: ALK kinase assays were conducted with the indicated final concentrations unless otherwise specified. In 384 well black plates (Axygen), 8 ul of compound (2% DMSO) was incubated with 8 ul Lck-peptide substrate (0.5 uM, biotin-Ahx-GAEEEIYAAFFA-COOH) and 8 ul of a mixture of ALK (3 nM, Millipore) and ATP (50 uM) in reaction buffer (50 mM Hepes, pH 7.4; 10 mM MgCl2; 2 mM MnCl2; 0.1 mM sodium orthovanadate; 0.01% BSA and 1 mM DTT (added fresh before assay) for 1 h at room temperature. Reactions were then quenched by the addition of 30 ul quench solution (streptavidin-allophycocyanin and Europium-cryptate PT66 monoclonal antibody in 40 mM Hepes, pH 7.4; 480 mM KF; 66 mM EDTA; 0.01% Tween-20; and 0.1% BSA) at room temperature. Plates were read 1 h after quenching on an Envision Multilaber Reader and IC50 values were calculated using a sigmoidal fit of the concentration/inhibition response curves. These values were converted to apparent Ki values.

>  <BAO Format ID>  (130) 
BAO_0000357

>  <BAO Label>  (130) 
single protein format

>  <Assay Organism>  (130) 
Homo sapiens

>  <Target ChEMBL ID>  (130) 
CHEMBL4247

>  <Target Name>  (130) 
ALK tyrosine kinase receptor

>  <Target Organism>  (130) 
Homo sapiens

>  <Target Type>  (130) 
SINGLE PROTEIN

>  <Document ChEMBL ID>  (130) 
CHEMBL3886424

>  <Source Description>  (130) 
BindingDB Database

>  <Document Journal>  (130) 
nan

>  <Document Year>  (130) 
2015.0

>  <Active>  (130) 
1.0

>  <bits>  (130) 
<rdkit.DataStructs.cDataStructs.ExplicitBitVect object at 0x000002422F1E3760>

>  <Group>  (130) 
G2

$$$$

     RDKit          2D

 39 42  0  0  0  0  0  0  0  0999 V2000
    5.0490   -0.5490    0.0000 H   0  0  0  0  0  0  0  0  0  0  0  0
    3.7500   -1.2990    0.0000 C   0  0  0  0  0  0  0  0  0  0  0  0
    2.4510   -2.0490    0.0000 H   0  0  0  0  0  0  0  0  0  0  0  0
    4.5000   -2.5981    0.0000 H   0  0  0  0  0  0  0  0  0  0  0  0
    3.0000    0.0000    0.0000 O   0  0  0  0  0  0  0  0  0  0  0  0
    1.5000    0.0000    0.0000 C   0  0  0  0  0  0  0  0  0  0  0  0
    0.7500   -1.2990    0.0000 C   0  0  0  0  0  0  0  0  0  0  0  0
   -0.7500   -1.2990    0.0000 C   0  0  0  0  0  0  0  0  0  0  0  0
   -1.5000   -2.5981    0.0000 C   0  0  0  0  0  0  0  0  0  0  0  0
   -3.0000   -2.5981    0.0000 C   0  0  0  0  0  0  0  0  0  0  0  0
   -3.7500   -3.8971    0.0000 C   0  0  0  0  0  0  0  0  0  0  0  0
   -3.0000   -5.1962    0.0000 N   0  0  0  0  0  0  0  0  0  0  0  0
   -1.5000   -5.1962    0.0000 C   0  0  0  0  0  0  0  0  0  0  0  0
   -0.7500   -3.8971    0.0000 C   0  0  0  0  0  0  0  0  0  0  0  0
   -1.5000    0.0000    0.0000 C   0  0  0  0  0  0  0  0  0  0  0  0
   -3.0000    0.0000    0.0000 C   0  0  0  0  0  0  0  0  0  0  0  0
   -0.7500    1.2990    0.0000 C   0  0  0  0  0  0  0  0  0  0  0  0
    0.7500    1.2990    0.0000 C   0  0  0  0  0  0  0  0  0  0  0  0
    1.5000    2.5981    0.0000 N   0  0  0  0  0  0  0  0  0  0  0  0
    3.0000    2.5981    0.0000 C   0  0  0  0  0  0  0  0  0  0  0  0
    3.7500    1.2990    0.0000 N   0  0  0  0  0  0  0  0  0  0  0  0
    5.2500    1.2990    0.0000 C   0  0  0  0  0  0  0  0  0  0  0  0
    6.0000    2.5981    0.0000 C   0  0  0  0  0  0  0  0  0  0  0  0
    7.5000    2.5981    0.0000 Cl  0  0  0  0  0  0  0  0  0  0  0  0
    5.2500    3.8971    0.0000 C   0  0  0  0  0  0  0  0  0  0  0  0
    6.0000    5.1962    0.0000 N   0  0  0  0  0  0  0  0  0  0  0  0
    5.2500    6.4952    0.0000 C   0  0  0  0  0  0  0  0  0  0  0  0
    3.7500    6.4952    0.0000 C   0  0  0  0  0  0  0  0  0  0  0  0
    3.0000    7.7942    0.0000 C   0  0  0  0  0  0  0  0  0  0  0  0
    3.7500    9.0933    0.0000 C   0  0  0  0  0  0  0  0  0  0  0  0
    5.2500    9.0933    0.0000 C   0  0  0  0  0  0  0  0  0  0  0  0
    6.0000    7.7942    0.0000 C   0  0  0  0  0  0  0  0  0  0  0  0
    7.5000    7.7942    0.0000 S   0  0  0  0  0  0  0  0  0  0  0  0
    7.5000    6.2942    0.0000 O   0  0  0  0  0  0  0  0  0  0  0  0
    7.5000    9.2942    0.0000 O   0  0  0  0  0  0  0  0  0  0  0  0
    9.0000    7.7942    0.0000 C   0  0  0  0  0  0  0  0  0  0  0  0
    9.7500    6.4952    0.0000 C   0  0  0  0  0  0  0  0  0  0  0  0
    9.7500    9.0933    0.0000 C   0  0  0  0  0  0  0  0  0  0  0  0
    3.7500    3.8971    0.0000 N   0  0  0  0  0  0  0  0  0  0  0  0
  1  2  1  0
  2  3  1  0
  2  4  1  0
  2  5  1  0
  5  6  1  0
  6  7  2  0
  7  8  1  0
  8  9  1  0
  9 10  1  0
 10 11  1  0
 11 12  1  0
 12 13  1  0
 13 14  1  0
  8 15  2  0
 15 16  1  0
 15 17  1  0
 17 18  2  0
 18 19  1  0
 19 20  1  0
 20 21  2  0
 21 22  1  0
 22 23  2  0
 23 24  1  0
 23 25  1  0
 25 26  1  0
 26 27  1  0
 27 28  2  0
 28 29  1  0
 29 30  2  0
 30 31  1  0
 31 32  2  0
 32 33  1  0
 33 34  2  0
 33 35  2  0
 33 36  1  0
 36 37  1  0
 36 38  1  0
 25 39  2  0
 18  6  1  0
 39 20  1  0
 14  9  1  0
 32 27  1  0
M  ISO  3   1   2   3   2   4   2
M  END
>  <Compound_ID>  (131) 
CHEMBL4464582

>  <Molecule Name>  (131) 
nan

>  <Molecular Weight>  (131) 
533.11

>  <AlogP>  (131) 
5.58

>  <Smiles>  (131) 
[2H]C([2H])([2H])Oc1cc(C2CCNCC2)c(C)cc1Nc1ncc(Cl)c(Nc2ccccc2S(=O)(=O)C(C)C)n1

>  <Standard Type>  (131) 
IC50

>  <Standard Relation>  (131) 
'='

>  <Standard Units>  (131) 
nM

>  <Standard Value>  (131) 
36.81

>  <Assay ChEMBL ID>  (131) 
CHEMBL4388505

>  <Assay Description>  (131) 
Inhibition of ALK F1174L mutant (unknown origin)

>  <BAO Format ID>  (131) 
BAO_0000357

>  <BAO Label>  (131) 
single protein format

>  <Assay Organism>  (131) 
Homo sapiens

>  <Target ChEMBL ID>  (131) 
CHEMBL4247

>  <Target Name>  (131) 
ALK tyrosine kinase receptor

>  <Target Organism>  (131) 
Homo sapiens

>  <Target Type>  (131) 
SINGLE PROTEIN

>  <Document ChEMBL ID>  (131) 
CHEMBL4387718

>  <Source Description>  (131) 
Scientific Literature

>  <Document Journal>  (131) 
Bioorg Med Chem Lett

>  <Document Year>  (131) 
2019.0

>  <Active>  (131) 
1.0

>  <bits>  (131) 
<rdkit.DataStructs.cDataStructs.ExplicitBitVect object at 0x000002422F1E31B0>

>  <Group>  (131) 
G2

$$$$

     RDKit          2D

 31 35  0  0  0  0  0  0  0  0999 V2000
    3.0000   -5.1962    0.0000 O   0  0  0  0  0  0  0  0  0  0  0  0
    2.2500   -3.8971    0.0000 C   0  0  0  0  0  0  0  0  0  0  0  0
    0.7500   -3.8971    0.0000 C   0  0  0  0  0  0  0  0  0  0  0  0
   -0.0000   -5.1962    0.0000 C   0  0  0  0  0  0  0  0  0  0  0  0
   -1.5000   -5.1962    0.0000 C   0  0  0  0  0  0  0  0  0  0  0  0
   -2.2500   -3.8971    0.0000 C   0  0  0  0  0  0  0  0  0  0  0  0
   -3.7500   -3.8971    0.0000 O   0  0  0  0  0  0  0  0  0  0  0  0
   -4.5000   -2.5981    0.0000 C   0  0  0  0  0  0  0  0  0  0  0  0
   -6.0000   -2.5981    0.0000 C   0  0  0  0  0  0  0  0  0  0  0  0
   -6.7500   -3.8971    0.0000 O   0  0  0  0  0  0  0  0  0  0  0  0
   -6.7500   -1.2990    0.0000 C   0  0  0  0  0  0  0  0  0  0  0  0
   -6.0000    0.0000    0.0000 O   0  0  0  0  0  0  0  0  0  0  0  0
   -8.2500   -1.2990    0.0000 C   0  0  0  0  0  0  0  0  0  0  0  0
   -9.0000    0.0000    0.0000 O   0  0  0  0  0  0  0  0  0  0  0  0
   -1.5000   -2.5981    0.0000 C   0  0  0  0  0  0  0  0  0  0  0  0
   -0.0000   -2.5981    0.0000 C   0  0  0  0  0  0  0  0  0  0  0  0
    0.7500   -1.2990    0.0000 C   0  0  0  0  0  0  0  0  0  0  0  0
    1.5000    0.0000    0.0000 C   0  0  0  0  0  0  0  0  0  0  0  0
    0.7500    1.2990    0.0000 C   0  0  0  0  0  0  0  0  0  0  0  0
   -0.7500    1.2990    0.0000 C   0  0  0  0  0  0  0  0  0  0  0  0
   -1.5000    0.0000    0.0000 C   0  0  0  0  0  0  0  0  0  0  0  0
   -0.7500   -1.2990    0.0000 C   0  0  0  0  0  0  0  0  0  0  0  0
    2.2500   -1.2990    0.0000 C   0  0  0  0  0  0  0  0  0  0  0  0
    3.2537   -0.1843    0.0000 O   0  0  0  0  0  0  0  0  0  0  0  0
    4.6240   -0.7944    0.0000 C   0  0  0  0  0  0  0  0  0  0  0  0
    5.9943   -0.1843    0.0000 C   0  0  0  0  0  0  0  0  0  0  0  0
    7.2079   -1.0660    0.0000 C   0  0  0  0  0  0  0  0  0  0  0  0
    7.0511   -2.5578    0.0000 C   0  0  0  0  0  0  0  0  0  0  0  0
    5.6807   -3.1679    0.0000 C   0  0  0  0  0  0  0  0  0  0  0  0
    4.4672   -2.2862    0.0000 C   0  0  0  0  0  0  0  0  0  0  0  0
    3.0000   -2.5981    0.0000 C   0  0  0  0  0  0  0  0  0  0  0  0
  1  2  2  0
  2  3  1  0
  3  4  2  0
  4  5  1  0
  5  6  2  0
  6  7  1  0
  7  8  1  0
  8  9  1  0
  9 10  1  1
  9 11  1  0
 11 12  1  1
 11 13  1  0
 13 14  1  0
  6 15  1  0
 15 16  2  0
 16 17  1  0
 17 18  1  0
 18 19  1  0
 19 20  1  0
 20 21  1  0
 21 22  1  0
 17 23  1  0
 23 24  1  0
 24 25  1  0
 25 26  2  0
 26 27  1  0
 27 28  2  0
 28 29  1  0
 29 30  2  0
 30 31  1  0
 31  2  1  0
 16  3  1  0
 22 17  1  0
 31 23  2  0
 30 25  1  0
M  END
>  <Compound_ID>  (132) 
CHEMBL4108907

>  <Molecule Name>  (132) 
nan

>  <Molecular Weight>  (132) 
422.48

>  <AlogP>  (132) 
3.32

>  <Smiles>  (132) 
O=C1c2ccc(OC[C@@H](O)[C@H](O)CO)cc2C2(CCCCC2)c2oc3ccccc3c21

>  <Standard Type>  (132) 
IC50

>  <Standard Relation>  (132) 
'='

>  <Standard Units>  (132) 
nM

>  <Standard Value>  (132) 
93.0

>  <Assay ChEMBL ID>  (132) 
CHEMBL3887074

>  <Assay Description>  (132) 
Inhibition Assay: ALK-inhibiting activity was measured by following an activity of inhibiting phosphorylation by biotinylated peptide (EGPWLEEEEEAYGWMDF). For the detection of phosphorylation of the biotinylated peptide, time-resolved fluorescence measurement was performed using an anti-phosphorylated tyrosine antibody labeled with europium cryptate and streptavidin conjugated to XL665, i.e., an allophycocyanin derivative.

>  <BAO Format ID>  (132) 
BAO_0000357

>  <BAO Label>  (132) 
single protein format

>  <Assay Organism>  (132) 
Homo sapiens

>  <Target ChEMBL ID>  (132) 
CHEMBL4247

>  <Target Name>  (132) 
ALK tyrosine kinase receptor

>  <Target Organism>  (132) 
Homo sapiens

>  <Target Type>  (132) 
SINGLE PROTEIN

>  <Document ChEMBL ID>  (132) 
CHEMBL3886150

>  <Source Description>  (132) 
BindingDB Database

>  <Document Journal>  (132) 
nan

>  <Document Year>  (132) 
2015.0

>  <Active>  (132) 
1.0

>  <bits>  (132) 
<rdkit.DataStructs.cDataStructs.ExplicitBitVect object at 0x000002422F1E28F0>

>  <Group>  (132) 
G2

$$$$

     RDKit          2D

 34 37  0  0  0  0  0  0  0  0999 V2000
   -3.7500    3.8971    0.0000 C   0  0  0  0  0  0  0  0  0  0  0  0
   -2.2500    3.8971    0.0000 C   0  0  0  0  0  0  0  0  0  0  0  0
   -1.5000    5.1962    0.0000 C   0  0  0  0  0  0  0  0  0  0  0  0
   -1.5000    2.5981    0.0000 S   0  0  0  0  0  0  0  0  0  0  0  0
   -0.2010    3.3481    0.0000 O   0  0  0  0  0  0  0  0  0  0  0  0
   -2.7990    1.8481    0.0000 O   0  0  0  0  0  0  0  0  0  0  0  0
   -0.7500    1.2990    0.0000 C   0  0  0  0  0  0  0  0  0  0  0  0
   -1.5000   -0.0000    0.0000 C   0  0  0  0  0  0  0  0  0  0  0  0
   -0.7500   -1.2990    0.0000 C   0  0  0  0  0  0  0  0  0  0  0  0
    0.7500   -1.2990    0.0000 C   0  0  0  0  0  0  0  0  0  0  0  0
    1.5000   -0.0000    0.0000 C   0  0  0  0  0  0  0  0  0  0  0  0
    0.7500    1.2990    0.0000 C   0  0  0  0  0  0  0  0  0  0  0  0
    1.5000    2.5981    0.0000 N   0  0  0  0  0  0  0  0  0  0  0  0
    3.0000    2.5981    0.0000 C   0  0  0  0  0  0  0  0  0  0  0  0
    3.7500    1.2990    0.0000 N   0  0  0  0  0  0  0  0  0  0  0  0
    5.2500    1.2990    0.0000 C   0  0  0  0  0  0  0  0  0  0  0  0
    6.0000   -0.0000    0.0000 N   0  0  0  0  0  0  0  0  0  0  0  0
    7.5000   -0.0000    0.0000 C   0  0  0  0  0  0  0  0  0  0  0  0
    8.2500   -1.2990    0.0000 C   0  0  0  0  0  0  0  0  0  0  0  0
    9.7500   -1.2990    0.0000 C   0  0  0  0  0  0  0  0  0  0  0  0
   10.5000   -0.0000    0.0000 C   0  0  0  0  0  0  0  0  0  0  0  0
    9.7500    1.2990    0.0000 C   0  0  0  0  0  0  0  0  0  0  0  0
   10.5000    2.5981    0.0000 N   0  0  0  0  0  0  0  0  0  0  0  0
   12.0000    2.5981    0.0000 C   0  0  0  0  0  0  0  0  0  0  0  0
   12.7500    1.2990    0.0000 O   0  0  0  0  0  0  0  0  0  0  0  0
   12.7500    3.8971    0.0000 C   0  0  0  0  0  0  0  0  0  0  0  0
   14.1989    4.2853    0.0000 C   0  0  0  0  0  0  0  0  0  0  0  0
   13.8107    5.7342    0.0000 N   0  0  0  0  0  0  0  0  0  0  0  0
   12.3618    5.3460    0.0000 C   0  0  0  0  0  0  0  0  0  0  0  0
    8.2500    1.2990    0.0000 C   0  0  0  0  0  0  0  0  0  0  0  0
    6.0000    2.5981    0.0000 N   0  0  0  0  0  0  0  0  0  0  0  0
    5.2500    3.8971    0.0000 C   0  0  0  0  0  0  0  0  0  0  0  0
    3.7500    3.8971    0.0000 C   0  0  0  0  0  0  0  0  0  0  0  0
    3.0000    5.1962    0.0000 Cl  0  0  0  0  0  0  0  0  0  0  0  0
  1  2  1  0
  2  3  1  0
  2  4  1  0
  4  5  2  0
  4  6  2  0
  4  7  1  0
  7  8  2  0
  8  9  1  0
  9 10  2  0
 10 11  1  0
 11 12  2  0
 12 13  1  0
 13 14  1  0
 14 15  2  0
 15 16  1  0
 16 17  1  0
 17 18  1  0
 18 19  2  0
 19 20  1  0
 20 21  2  0
 21 22  1  0
 22 23  1  0
 23 24  1  0
 24 25  2  0
 24 26  1  0
 26 27  1  0
 27 28  1  0
 28 29  1  0
 22 30  2  0
 16 31  2  0
 31 32  1  0
 32 33  2  0
 33 34  1  0
 12  7  1  0
 33 14  1  0
 30 18  1  0
 29 26  1  0
M  END
>  <Compound_ID>  (133) 
CHEMBL3352867

>  <Molecule Name>  (133) 
nan

>  <Molecular Weight>  (133) 
501.01

>  <AlogP>  (133) 
3.96

>  <Smiles>  (133) 
CC(C)S(=O)(=O)c1ccccc1Nc1nc(Nc2cccc(NC(=O)C3CNC3)c2)ncc1Cl

>  <Standard Type>  (133) 
IC50

>  <Standard Relation>  (133) 
'='

>  <Standard Units>  (133) 
nM

>  <Standard Value>  (133) 
20.7

>  <Assay ChEMBL ID>  (133) 
CHEMBL3364272

>  <Assay Description>  (133) 
Inhibition of ALK (unknown origin) after 60 mins by ELISA

>  <BAO Format ID>  (133) 
BAO_0000357

>  <BAO Label>  (133) 
single protein format

>  <Assay Organism>  (133) 
Homo sapiens

>  <Target ChEMBL ID>  (133) 
CHEMBL4247

>  <Target Name>  (133) 
ALK tyrosine kinase receptor

>  <Target Organism>  (133) 
Homo sapiens

>  <Target Type>  (133) 
SINGLE PROTEIN

>  <Document ChEMBL ID>  (133) 
CHEMBL3351234

>  <Source Description>  (133) 
Scientific Literature

>  <Document Journal>  (133) 
J Med Chem

>  <Document Year>  (133) 
2015.0

>  <Active>  (133) 
1.0

>  <bits>  (133) 
<rdkit.DataStructs.cDataStructs.ExplicitBitVect object at 0x000002422F1E1D90>

>  <Group>  (133) 
G2

$$$$

     RDKit          2D

 42 45  0  0  0  0  0  0  0  0999 V2000
    3.7500   -1.2990    0.0000 C   0  0  0  0  0  0  0  0  0  0  0  0
    3.0000    0.0000    0.0000 C   0  0  0  0  0  0  0  0  0  0  0  0
    1.5000    0.0000    0.0000 N   0  0  0  0  0  0  0  0  0  0  0  0
    0.7500   -1.2990    0.0000 C   0  0  0  0  0  0  0  0  0  0  0  0
   -0.7500   -1.2990    0.0000 C   0  0  0  0  0  0  0  0  0  0  0  0
   -1.5000    0.0000    0.0000 N   0  0  0  0  0  0  0  0  0  0  0  0
   -3.0000    0.0000    0.0000 C   0  0  0  0  0  0  0  0  0  0  0  0
   -3.7500    1.2990    0.0000 C   0  0  0  0  0  0  0  0  0  0  0  0
   -5.2500    1.2990    0.0000 S   0  0  0  0  0  0  0  0  0  0  0  0
   -5.2500    2.7990    0.0000 O   0  0  0  0  0  0  0  0  0  0  0  0
   -5.2500   -0.2010    0.0000 O   0  0  0  0  0  0  0  0  0  0  0  0
   -6.7500    1.2990    0.0000 C   0  0  0  0  0  0  0  0  0  0  0  0
   -7.5000    2.5981    0.0000 C   0  0  0  0  0  0  0  0  0  0  0  0
   -9.0000    2.5981    0.0000 C   0  0  0  0  0  0  0  0  0  0  0  0
   -9.7500    1.2990    0.0000 C   0  0  0  0  0  0  0  0  0  0  0  0
  -11.2500    1.2990    0.0000 N   0  0  0  0  0  0  0  0  0  0  0  0
  -12.0000    2.5981    0.0000 C   0  0  0  0  0  0  0  0  0  0  0  0
  -11.2500    3.8971    0.0000 N   0  0  0  0  0  0  0  0  0  0  0  0
  -12.0000    5.1962    0.0000 C   0  0  0  0  0  0  0  0  0  0  0  0
  -13.5000    5.1962    0.0000 C   0  0  0  0  0  0  0  0  0  0  0  0
  -14.2500    6.4952    0.0000 Cl  0  0  0  0  0  0  0  0  0  0  0  0
  -14.2500    3.8971    0.0000 C   0  0  0  0  0  0  0  0  0  0  0  0
  -15.7500    3.8971    0.0000 N   0  0  0  0  0  0  0  0  0  0  0  0
  -16.5000    2.5981    0.0000 C   0  0  0  0  0  0  0  0  0  0  0  0
  -15.7500    1.2990    0.0000 C   0  0  0  0  0  0  0  0  0  0  0  0
  -16.5000    0.0000    0.0000 C   0  0  0  0  0  0  0  0  0  0  0  0
  -18.0000    0.0000    0.0000 C   0  0  0  0  0  0  0  0  0  0  0  0
  -18.7500    1.2990    0.0000 C   0  0  0  0  0  0  0  0  0  0  0  0
  -18.0000    2.5981    0.0000 C   0  0  0  0  0  0  0  0  0  0  0  0
  -18.7500    3.8971    0.0000 S   0  0  0  0  0  0  0  0  0  0  0  0
  -17.4510    4.6471    0.0000 O   0  0  0  0  0  0  0  0  0  0  0  0
  -20.0490    3.1471    0.0000 O   0  0  0  0  0  0  0  0  0  0  0  0
  -19.5000    5.1962    0.0000 C   0  0  0  0  0  0  0  0  0  0  0  0
  -21.0000    5.1962    0.0000 C   0  0  0  0  0  0  0  0  0  0  0  0
  -18.7500    6.4952    0.0000 C   0  0  0  0  0  0  0  0  0  0  0  0
  -13.5000    2.5981    0.0000 N   0  0  0  0  0  0  0  0  0  0  0  0
   -9.0000    0.0000    0.0000 C   0  0  0  0  0  0  0  0  0  0  0  0
   -9.7500   -1.2990    0.0000 O   0  0  0  0  0  0  0  0  0  0  0  0
   -9.0000   -2.5981    0.0000 C   0  0  0  0  0  0  0  0  0  0  0  0
   -7.5000    0.0000    0.0000 C   0  0  0  0  0  0  0  0  0  0  0  0
   -0.7500    1.2990    0.0000 C   0  0  0  0  0  0  0  0  0  0  0  0
    0.7500    1.2990    0.0000 C   0  0  0  0  0  0  0  0  0  0  0  0
  1  2  1  0
  2  3  1  0
  3  4  1  0
  4  5  1  0
  5  6  1  0
  6  7  1  0
  7  8  1  0
  8  9  1  0
  9 10  2  0
  9 11  2  0
  9 12  1  0
 12 13  2  0
 13 14  1  0
 14 15  2  0
 15 16  1  0
 16 17  1  0
 17 18  2  0
 18 19  1  0
 19 20  2  0
 20 21  1  0
 20 22  1  0
 22 23  1  0
 23 24  1  0
 24 25  2  0
 25 26  1  0
 26 27  2  0
 27 28  1  0
 28 29  2  0
 29 30  1  0
 30 31  2  0
 30 32  2  0
 30 33  1  0
 33 34  1  0
 33 35  1  0
 22 36  2  0
 15 37  1  0
 37 38  1  0
 38 39  1  0
 37 40  2  0
  6 41  1  0
 41 42  1  0
 42  3  1  0
 40 12  1  0
 36 17  1  0
 29 24  1  0
M  END
>  <Compound_ID>  (134) 
CHEMBL4750810

>  <Molecule Name>  (134) 
nan

>  <Molecular Weight>  (134) 
637.23

>  <AlogP>  (134) 
4.22

>  <Smiles>  (134) 
CCN1CCN(CCS(=O)(=O)c2ccc(Nc3ncc(Cl)c(Nc4ccccc4S(=O)(=O)C(C)C)n3)c(OC)c2)CC1

>  <Standard Type>  (134) 
IC50

>  <Standard Relation>  (134) 
'='

>  <Standard Units>  (134) 
nM

>  <Standard Value>  (134) 
4.3

>  <Assay ChEMBL ID>  (134) 
CHEMBL4672469

>  <Assay Description>  (134) 
Inhibition of ALK (unknown origin) using peptide substrate incubated for 60 mins in presence of ATP by HTRF assay

>  <BAO Format ID>  (134) 
BAO_0000357

>  <BAO Label>  (134) 
single protein format

>  <Assay Organism>  (134) 
Homo sapiens

>  <Target ChEMBL ID>  (134) 
CHEMBL4247

>  <Target Name>  (134) 
ALK tyrosine kinase receptor

>  <Target Organism>  (134) 
Homo sapiens

>  <Target Type>  (134) 
SINGLE PROTEIN

>  <Document ChEMBL ID>  (134) 
CHEMBL4665877

>  <Source Description>  (134) 
Scientific Literature

>  <Document Journal>  (134) 
Bioorg Med Chem

>  <Document Year>  (134) 
2020.0

>  <Active>  (134) 
1.0

>  <bits>  (134) 
<rdkit.DataStructs.cDataStructs.ExplicitBitVect object at 0x000002422F1E1C40>

>  <Group>  (134) 
G2

$$$$

     RDKit          2D

 36 40  0  0  0  0  0  0  0  0999 V2000
   -6.8516   -6.6578    0.0000 C   0  0  0  0  0  0  0  0  0  0  0  0
   -5.6381   -7.5395    0.0000 C   0  0  0  0  0  0  0  0  0  0  0  0
   -4.2677   -6.9294    0.0000 C   0  0  0  0  0  0  0  0  0  0  0  0
   -4.1110   -5.4376    0.0000 C   0  0  0  0  0  0  0  0  0  0  0  0
   -2.7406   -4.8275    0.0000 C   0  0  0  0  0  0  0  0  0  0  0  0
   -1.5271   -5.7092    0.0000 C   0  0  0  0  0  0  0  0  0  0  0  0
   -1.6839   -7.2010    0.0000 C   0  0  0  0  0  0  0  0  0  0  0  0
   -3.0542   -7.8111    0.0000 C   0  0  0  0  0  0  0  0  0  0  0  0
   -3.2110   -9.3029    0.0000 N   0  0  0  0  0  0  0  0  0  0  0  0
   -4.5813   -9.9130    0.0000 C   0  0  0  0  0  0  0  0  0  0  0  0
   -4.7381  -11.4047    0.0000 C   0  0  0  0  0  0  0  0  0  0  0  0
   -3.5246  -12.2864    0.0000 N   0  0  0  0  0  0  0  0  0  0  0  0
   -3.6814  -13.7782    0.0000 C   0  0  0  0  0  0  0  0  0  0  0  0
   -2.4679  -14.6599    0.0000 O   0  0  0  0  0  0  0  0  0  0  0  0
   -5.0517  -14.3883    0.0000 C   0  0  0  0  0  0  0  0  0  0  0  0
   -5.2085  -15.8801    0.0000 N   0  0  0  0  0  0  0  0  0  0  0  0
   -6.5788  -16.4902    0.0000 C   0  0  0  0  0  0  0  0  0  0  0  0
   -3.9950  -16.7618    0.0000 C   0  0  0  0  0  0  0  0  0  0  0  0
   -2.1543  -11.6763    0.0000 C   0  0  0  0  0  0  0  0  0  0  0  0
   -1.9975  -10.1845    0.0000 C   0  0  0  0  0  0  0  0  0  0  0  0
   -0.1568   -5.0991    0.0000 C   0  0  0  0  0  0  0  0  0  0  0  0
    1.3396   -4.9944    0.0000 C   0  0  0  0  0  0  0  0  0  0  0  0
    0.2061   -6.5545    0.0000 C   0  0  0  0  0  0  0  0  0  0  0  0
   -0.0000   -3.6073    0.0000 C   0  0  0  0  0  0  0  0  0  0  0  0
    1.2135   -2.7256    0.0000 N   0  0  0  0  0  0  0  0  0  0  0  0
    0.7500   -1.2990    0.0000 C   0  0  0  0  0  0  0  0  0  0  0  0
    1.5000    0.0000    0.0000 C   0  0  0  0  0  0  0  0  0  0  0  0
    0.7500    1.2990    0.0000 C   0  0  0  0  0  0  0  0  0  0  0  0
    1.5000    2.5981    0.0000 C   0  0  0  0  0  0  0  0  0  0  0  0
    2.2500    3.8971    0.0000 N   0  0  0  0  0  0  0  0  0  0  0  0
   -0.7500    1.2990    0.0000 C   0  0  0  0  0  0  0  0  0  0  0  0
   -1.5000    0.0000    0.0000 C   0  0  0  0  0  0  0  0  0  0  0  0
   -0.7500   -1.2990    0.0000 C   0  0  0  0  0  0  0  0  0  0  0  0
   -1.2135   -2.7256    0.0000 C   0  0  0  0  0  0  0  0  0  0  0  0
   -2.5838   -3.3357    0.0000 C   0  0  0  0  0  0  0  0  0  0  0  0
   -3.7974   -2.4540    0.0000 O   0  0  0  0  0  0  0  0  0  0  0  0
  1  2  1  0
  2  3  1  0
  3  4  2  0
  4  5  1  0
  5  6  2  0
  6  7  1  0
  7  8  2  0
  8  9  1  0
  9 10  1  0
 10 11  1  0
 11 12  1  0
 12 13  1  0
 13 14  2  0
 13 15  1  0
 15 16  1  0
 16 17  1  0
 16 18  1  0
 12 19  1  0
 19 20  1  0
  6 21  1  0
 21 22  1  0
 21 23  1  0
 21 24  1  0
 24 25  1  0
 25 26  1  0
 26 27  2  0
 27 28  1  0
 28 29  1  0
 29 30  3  0
 28 31  2  0
 31 32  1  0
 32 33  2  0
 33 34  1  0
 34 35  1  0
 35 36  2  0
  8  3  1  0
 20  9  1  0
 34 24  2  0
 35  5  1  0
 33 26  1  0
M  END
>  <Compound_ID>  (135) 
CHEMBL3986700

>  <Molecule Name>  (135) 
nan

>  <Molecular Weight>  (135) 
483.62

>  <AlogP>  (135) 
3.68

>  <Smiles>  (135) 
CCc1cc2c(cc1N1CCN(C(=O)CN(C)C)CC1)C(C)(C)c1[nH]c3cc(C#N)ccc3c1C2=O

>  <Standard Type>  (135) 
IC50

>  <Standard Relation>  (135) 
'='

>  <Standard Units>  (135) 
nM

>  <Standard Value>  (135) 
0.4

>  <Assay ChEMBL ID>  (135) 
CHEMBL3887074

>  <Assay Description>  (135) 
Inhibition Assay: ALK-inhibiting activity was measured by following an activity of inhibiting phosphorylation by biotinylated peptide (EGPWLEEEEEAYGWMDF). For the detection of phosphorylation of the biotinylated peptide, time-resolved fluorescence measurement was performed using an anti-phosphorylated tyrosine antibody labeled with europium cryptate and streptavidin conjugated to XL665, i.e., an allophycocyanin derivative.

>  <BAO Format ID>  (135) 
BAO_0000357

>  <BAO Label>  (135) 
single protein format

>  <Assay Organism>  (135) 
Homo sapiens

>  <Target ChEMBL ID>  (135) 
CHEMBL4247

>  <Target Name>  (135) 
ALK tyrosine kinase receptor

>  <Target Organism>  (135) 
Homo sapiens

>  <Target Type>  (135) 
SINGLE PROTEIN

>  <Document ChEMBL ID>  (135) 
CHEMBL3886150

>  <Source Description>  (135) 
BindingDB Database

>  <Document Journal>  (135) 
nan

>  <Document Year>  (135) 
2015.0

>  <Active>  (135) 
1.0

>  <bits>  (135) 
<rdkit.DataStructs.cDataStructs.ExplicitBitVect object at 0x000002422F1E1770>

>  <Group>  (135) 
G2

$$$$

     RDKit          2D

 39 43  0  0  0  0  0  0  0  0999 V2000
   11.3223    7.1913    0.0000 C   0  0  0  0  0  0  0  0  0  0  0  0
   11.7858    5.7647    0.0000 C   0  0  0  0  0  0  0  0  0  0  0  0
   13.2530    5.4528    0.0000 C   0  0  0  0  0  0  0  0  0  0  0  0
   10.7821    4.6500    0.0000 S   0  0  0  0  0  0  0  0  0  0  0  0
    9.6674    5.6537    0.0000 O   0  0  0  0  0  0  0  0  0  0  0  0
   11.8968    3.6463    0.0000 O   0  0  0  0  0  0  0  0  0  0  0  0
    9.7784    3.5353    0.0000 C   0  0  0  0  0  0  0  0  0  0  0  0
   10.2420    2.1087    0.0000 C   0  0  0  0  0  0  0  0  0  0  0  0
    9.2383    0.9940    0.0000 C   0  0  0  0  0  0  0  0  0  0  0  0
    7.7710    1.3058    0.0000 C   0  0  0  0  0  0  0  0  0  0  0  0
    7.3075    2.7324    0.0000 C   0  0  0  0  0  0  0  0  0  0  0  0
    8.3112    3.8471    0.0000 C   0  0  0  0  0  0  0  0  0  0  0  0
    7.8477    5.2737    0.0000 N   0  0  0  0  0  0  0  0  0  0  0  0
    6.3805    5.5856    0.0000 C   0  0  0  0  0  0  0  0  0  0  0  0
    5.9169    7.0122    0.0000 N   0  0  0  0  0  0  0  0  0  0  0  0
    4.4497    7.3241    0.0000 C   0  0  0  0  0  0  0  0  0  0  0  0
    3.9862    8.7506    0.0000 N   0  0  0  0  0  0  0  0  0  0  0  0
    2.5190    9.0625    0.0000 C   0  0  0  0  0  0  0  0  0  0  0  0
    2.0554   10.4891    0.0000 C   0  0  0  0  0  0  0  0  0  0  0  0
    0.5882   10.8010    0.0000 C   0  0  0  0  0  0  0  0  0  0  0  0
   -0.4155    9.6862    0.0000 C   0  0  0  0  0  0  0  0  0  0  0  0
    0.0481    8.2597    0.0000 C   0  0  0  0  0  0  0  0  0  0  0  0
   -0.9556    7.1449    0.0000 N   0  0  0  0  0  0  0  0  0  0  0  0
   -0.4921    5.7184    0.0000 C   0  0  0  0  0  0  0  0  0  0  0  0
    0.9751    5.4065    0.0000 O   0  0  0  0  0  0  0  0  0  0  0  0
   -1.4958    4.6036    0.0000 C   0  0  0  0  0  0  0  0  0  0  0  0
   -1.0323    3.1771    0.0000 N   0  0  0  0  0  0  0  0  0  0  0  0
    0.3943    2.7135    0.0000 C   0  0  0  0  0  0  0  0  0  0  0  0
    0.3943    1.2135    0.0000 C   0  0  0  0  0  0  0  0  0  0  0  0
    1.2760    0.0000    0.0000 C   0  0  0  0  0  0  0  0  0  0  0  0
    0.3943   -1.2135    0.0000 N   0  0  0  0  0  0  0  0  0  0  0  0
   -1.0323   -0.7500    0.0000 C   0  0  0  0  0  0  0  0  0  0  0  0
   -1.0323    0.7500    0.0000 C   0  0  0  0  0  0  0  0  0  0  0  0
   -1.9140    1.9635    0.0000 C   0  0  0  0  0  0  0  0  0  0  0  0
    1.5153    7.9478    0.0000 C   0  0  0  0  0  0  0  0  0  0  0  0
    3.4460    6.2093    0.0000 N   0  0  0  0  0  0  0  0  0  0  0  0
    3.9095    4.7828    0.0000 C   0  0  0  0  0  0  0  0  0  0  0  0
    5.3768    4.4709    0.0000 C   0  0  0  0  0  0  0  0  0  0  0  0
    5.8403    3.0443    0.0000 Cl  0  0  0  0  0  0  0  0  0  0  0  0
  1  2  1  0
  2  3  1  0
  2  4  1  0
  4  5  2  0
  4  6  2  0
  4  7  1  0
  7  8  2  0
  8  9  1  0
  9 10  2  0
 10 11  1  0
 11 12  2  0
 12 13  1  0
 13 14  1  0
 14 15  2  0
 15 16  1  0
 16 17  1  0
 17 18  1  0
 18 19  2  0
 19 20  1  0
 20 21  2  0
 21 22  1  0
 22 23  1  0
 23 24  1  0
 24 25  2  0
 24 26  1  0
 26 27  1  0
 27 28  1  0
 28 29  1  0
 29 30  1  0
 30 31  1  0
 31 32  1  0
 32 33  1  0
 33 34  1  0
 22 35  2  0
 16 36  2  0
 36 37  1  0
 37 38  2  0
 38 39  1  0
 12  7  1  0
 38 14  1  0
 35 18  1  0
 34 27  1  0
 33 29  1  0
M  END
>  <Compound_ID>  (136) 
CHEMBL3357464

>  <Molecule Name>  (136) 
nan

>  <Molecular Weight>  (136) 
570.12

>  <AlogP>  (136) 
3.89

>  <Smiles>  (136) 
CC(C)S(=O)(=O)c1ccccc1Nc1nc(Nc2cccc(NC(=O)CN3CC4CNCC4C3)c2)ncc1Cl

>  <Standard Type>  (136) 
IC50

>  <Standard Relation>  (136) 
'='

>  <Standard Units>  (136) 
nM

>  <Standard Value>  (136) 
5.5

>  <Assay ChEMBL ID>  (136) 
CHEMBL3364272

>  <Assay Description>  (136) 
Inhibition of ALK (unknown origin) after 60 mins by ELISA

>  <BAO Format ID>  (136) 
BAO_0000357

>  <BAO Label>  (136) 
single protein format

>  <Assay Organism>  (136) 
Homo sapiens

>  <Target ChEMBL ID>  (136) 
CHEMBL4247

>  <Target Name>  (136) 
ALK tyrosine kinase receptor

>  <Target Organism>  (136) 
Homo sapiens

>  <Target Type>  (136) 
SINGLE PROTEIN

>  <Document ChEMBL ID>  (136) 
CHEMBL3351234

>  <Source Description>  (136) 
Scientific Literature

>  <Document Journal>  (136) 
J Med Chem

>  <Document Year>  (136) 
2015.0

>  <Active>  (136) 
1.0

>  <bits>  (136) 
<rdkit.DataStructs.cDataStructs.ExplicitBitVect object at 0x000002422F1E3530>

>  <Group>  (136) 
G2

$$$$

     RDKit          2D

 35 38  0  0  0  0  0  0  0  0999 V2000
   -6.6505   -4.0034    0.0000 C   0  0  0  0  0  0  0  0  0  0  0  0
   -5.6303   -2.9038    0.0000 C   0  0  0  0  0  0  0  0  0  0  0  0
   -4.1679   -3.2376    0.0000 C   0  0  0  0  0  0  0  0  0  0  0  0
   -3.1476   -2.1380    0.0000 C   0  0  0  0  0  0  0  0  0  0  0  0
   -1.6852   -2.4718    0.0000 C   0  0  0  0  0  0  0  0  0  0  0  0
   -1.3515   -3.9342    0.0000 C   0  0  0  0  0  0  0  0  0  0  0  0
   -0.0000   -4.5850    0.0000 N   0  0  0  0  0  0  0  0  0  0  0  0
   -0.0000   -6.0850    0.0000 C   0  0  0  0  0  0  0  0  0  0  0  0
    1.3515   -3.9342    0.0000 C   0  0  0  0  0  0  0  0  0  0  0  0
    1.6852   -2.4718    0.0000 C   0  0  0  0  0  0  0  0  0  0  0  0
    0.7500   -1.2990    0.0000 C   0  0  0  0  0  0  0  0  0  0  0  0
    1.5000    0.0000    0.0000 C   0  0  0  0  0  0  0  0  0  0  0  0
    0.7500    1.2990    0.0000 C   0  0  0  0  0  0  0  0  0  0  0  0
   -0.7500    1.2990    0.0000 C   0  0  0  0  0  0  0  0  0  0  0  0
   -1.5000    2.5981    0.0000 N   0  0  0  0  0  0  0  0  0  0  0  0
   -0.7500    3.8971    0.0000 C   0  0  0  0  0  0  0  0  0  0  0  0
    0.7500    3.8971    0.0000 N   0  0  0  0  0  0  0  0  0  0  0  0
    1.5000    5.1962    0.0000 C   0  0  0  0  0  0  0  0  0  0  0  0
    0.7500    6.4952    0.0000 C   0  0  0  0  0  0  0  0  0  0  0  0
    1.5000    7.7942    0.0000 Cl  0  0  0  0  0  0  0  0  0  0  0  0
   -0.7500    6.4952    0.0000 C   0  0  0  0  0  0  0  0  0  0  0  0
   -1.5000    7.7942    0.0000 N   0  0  0  0  0  0  0  0  0  0  0  0
   -3.0000    7.7942    0.0000 C   0  0  0  0  0  0  0  0  0  0  0  0
   -3.7500    6.4952    0.0000 C   0  0  0  0  0  0  0  0  0  0  0  0
   -5.2500    6.4952    0.0000 C   0  0  0  0  0  0  0  0  0  0  0  0
   -6.0000    7.7942    0.0000 C   0  0  0  0  0  0  0  0  0  0  0  0
   -5.2500    9.0933    0.0000 C   0  0  0  0  0  0  0  0  0  0  0  0
   -3.7500    9.0933    0.0000 C   0  0  0  0  0  0  0  0  0  0  0  0
   -3.0000   10.3923    0.0000 C   0  0  0  0  0  0  0  0  0  0  0  0
   -1.5000   10.3923    0.0000 O   0  0  0  0  0  0  0  0  0  0  0  0
   -3.7500   11.6913    0.0000 N   0  0  0  0  0  0  0  0  0  0  0  0
   -3.0000   12.9904    0.0000 C   0  0  0  0  0  0  0  0  0  0  0  0
   -1.5000    5.1962    0.0000 N   0  0  0  0  0  0  0  0  0  0  0  0
   -1.5000    0.0000    0.0000 C   0  0  0  0  0  0  0  0  0  0  0  0
   -0.7500   -1.2990    0.0000 C   0  0  0  0  0  0  0  0  0  0  0  0
  1  2  1  0
  2  3  1  0
  3  4  1  0
  4  5  1  0
  5  6  1  0
  6  7  1  0
  7  8  1  0
  7  9  1  0
  9 10  1  0
 10 11  1  0
 11 12  2  0
 12 13  1  0
 13 14  2  0
 14 15  1  0
 15 16  1  0
 16 17  2  0
 17 18  1  0
 18 19  2  0
 19 20  1  0
 19 21  1  0
 21 22  1  0
 22 23  1  0
 23 24  2  0
 24 25  1  0
 25 26  2  0
 26 27  1  0
 27 28  2  0
 28 29  1  0
 29 30  2  0
 29 31  1  0
 31 32  1  0
 21 33  2  0
 14 34  1  0
 34 35  2  0
 35  5  1  0
 35 11  1  0
 33 16  1  0
 28 23  1  0
M  END
>  <Compound_ID>  (137) 
CHEMBL3263972

>  <Molecule Name>  (137) 
nan

>  <Molecular Weight>  (137) 
493.06

>  <AlogP>  (137) 
5.74

>  <Smiles>  (137) 
CCCCC1CN(C)CCc2ccc(Nc3ncc(Cl)c(Nc4ccccc4C(=O)NC)n3)cc21

>  <Standard Type>  (137) 
IC50

>  <Standard Relation>  (137) 
'='

>  <Standard Units>  (137) 
nM

>  <Standard Value>  (137) 
7.7

>  <Assay ChEMBL ID>  (137) 
CHEMBL3267806

>  <Assay Description>  (137) 
Inhibition of purified recombinant ALK (unknown origin) after 60 mins by ELISA

>  <BAO Format ID>  (137) 
BAO_0000357

>  <BAO Label>  (137) 
single protein format

>  <Assay Organism>  (137) 
Homo sapiens

>  <Target ChEMBL ID>  (137) 
CHEMBL4247

>  <Target Name>  (137) 
ALK tyrosine kinase receptor

>  <Target Organism>  (137) 
Homo sapiens

>  <Target Type>  (137) 
SINGLE PROTEIN

>  <Document ChEMBL ID>  (137) 
CHEMBL3259567

>  <Source Description>  (137) 
Scientific Literature

>  <Document Journal>  (137) 
ACS Med Chem Lett

>  <Document Year>  (137) 
2014.0

>  <Active>  (137) 
1.0

>  <bits>  (137) 
<rdkit.DataStructs.cDataStructs.ExplicitBitVect object at 0x000002422F1E2F10>

>  <Group>  (137) 
G2

$$$$

     RDKit          2D

 38 42  0  0  0  0  0  0  0  0999 V2000
   -4.5577    0.2855    0.0000 C   0  0  0  0  0  0  0  0  0  0  0  0
   -3.4430   -0.7182    0.0000 O   0  0  0  0  0  0  0  0  0  0  0  0
   -3.7548   -2.1855    0.0000 C   0  0  0  0  0  0  0  0  0  0  0  0
   -5.1814   -2.6490    0.0000 C   0  0  0  0  0  0  0  0  0  0  0  0
   -5.4933   -4.1162    0.0000 C   0  0  0  0  0  0  0  0  0  0  0  0
   -4.3786   -5.1199    0.0000 C   0  0  0  0  0  0  0  0  0  0  0  0
   -2.9520   -4.6564    0.0000 C   0  0  0  0  0  0  0  0  0  0  0  0
   -2.6401   -3.1891    0.0000 C   0  0  0  0  0  0  0  0  0  0  0  0
   -1.2135   -2.7256    0.0000 C   0  0  0  0  0  0  0  0  0  0  0  0
   -0.0000   -3.6073    0.0000 C   0  0  0  0  0  0  0  0  0  0  0  0
    0.0000   -5.1073    0.0000 C   0  0  0  0  0  0  0  0  0  0  0  0
    1.2990   -5.8573    0.0000 N   0  0  0  0  0  0  0  0  0  0  0  0
   -1.2990   -5.8573    0.0000 O   0  0  0  0  0  0  0  0  0  0  0  0
    1.2135   -2.7256    0.0000 S   0  0  0  0  0  0  0  0  0  0  0  0
    0.7500   -1.2990    0.0000 C   0  0  0  0  0  0  0  0  0  0  0  0
    1.5000    0.0000    0.0000 C   0  0  0  0  0  0  0  0  0  0  0  0
    0.7500    1.2990    0.0000 N   0  0  0  0  0  0  0  0  0  0  0  0
   -0.7500    1.2990    0.0000 C   0  0  0  0  0  0  0  0  0  0  0  0
   -1.5000    2.5981    0.0000 N   0  0  0  0  0  0  0  0  0  0  0  0
   -0.7500    3.8971    0.0000 C   0  0  0  0  0  0  0  0  0  0  0  0
    0.7500    3.8971    0.0000 C   0  0  0  0  0  0  0  0  0  0  0  0
    1.5000    5.1962    0.0000 C   0  0  0  0  0  0  0  0  0  0  0  0
    0.7500    6.4952    0.0000 C   0  0  0  0  0  0  0  0  0  0  0  0
    1.5000    7.7942    0.0000 N   0  0  0  0  0  0  0  0  0  0  0  0
    3.0000    7.7942    0.0000 C   0  0  0  0  0  0  0  0  0  0  0  0
    3.7500    6.4952    0.0000 C   0  0  0  0  0  0  0  0  0  0  0  0
    5.2500    6.4952    0.0000 C   0  0  0  0  0  0  0  0  0  0  0  0
    6.0000    7.7942    0.0000 O   0  0  0  0  0  0  0  0  0  0  0  0
    5.2500    9.0933    0.0000 C   0  0  0  0  0  0  0  0  0  0  0  0
    3.7500    9.0933    0.0000 C   0  0  0  0  0  0  0  0  0  0  0  0
   -0.7500    6.4952    0.0000 C   0  0  0  0  0  0  0  0  0  0  0  0
   -1.5000    5.1962    0.0000 C   0  0  0  0  0  0  0  0  0  0  0  0
   -3.0000    5.1962    0.0000 O   0  0  0  0  0  0  0  0  0  0  0  0
   -3.7500    6.4952    0.0000 C   0  0  0  0  0  0  0  0  0  0  0  0
   -5.2500    6.4952    0.0000 C   0  0  0  0  0  0  0  0  0  0  0  0
   -3.0000    7.7942    0.0000 C   0  0  0  0  0  0  0  0  0  0  0  0
   -1.5000    0.0000    0.0000 N   0  0  0  0  0  0  0  0  0  0  0  0
   -0.7500   -1.2990    0.0000 C   0  0  0  0  0  0  0  0  0  0  0  0
  1  2  1  0
  2  3  1  0
  3  4  2  0
  4  5  1  0
  5  6  2  0
  6  7  1  0
  7  8  2  0
  8  9  1  0
  9 10  2  0
 10 11  1  0
 11 12  1  0
 11 13  2  0
 10 14  1  0
 14 15  1  0
 15 16  2  0
 16 17  1  0
 17 18  2  0
 18 19  1  0
 19 20  1  0
 20 21  2  0
 21 22  1  0
 22 23  2  0
 23 24  1  0
 24 25  1  0
 25 26  1  0
 26 27  1  0
 27 28  1  0
 28 29  1  0
 29 30  1  0
 23 31  1  0
 31 32  2  0
 32 33  1  0
 33 34  1  0
 34 35  1  0
 34 36  1  0
 18 37  1  0
 37 38  2  0
  8  3  1  0
 38  9  1  0
 38 15  1  0
 32 20  1  0
 30 25  1  0
M  END
>  <Compound_ID>  (138) 
CHEMBL3669147

>  <Molecule Name>  (138) 
nan

>  <Molecular Weight>  (138) 
533.65

>  <AlogP>  (138) 
5.59

>  <Smiles>  (138) 
COc1ccccc1-c1c(C(N)=O)sc2cnc(Nc3ccc(NC4CCOCC4)cc3OC(C)C)nc12

>  <Standard Type>  (138) 
IC50

>  <Standard Relation>  (138) 
'='

>  <Standard Units>  (138) 
nM

>  <Standard Value>  (138) 
35.0

>  <Assay ChEMBL ID>  (138) 
CHEMBL3705810

>  <Assay Description>  (138) 
In Vitro Inhibition Assay: The reagents used have the following composition: Enzyme buffer (EB): 50 mM HEPES (pH: 7.0) (Sigma H7523), 100 mM NaCl (Sigma S7653), NaN.sub.3 at 0.01% (Sigma S8032), BSA at 0.005% (Sigma A2153), 0.05 mM sodium orthovanadate (Calbiochem 567540). Detection buffer (DB): 50 mM HEPES (pH: 7.0), BSA at 0.1%, 0.8 M KF (Fluka 60239), 20 mM EDTA (Sigma E5134).The peptide used is the one described in Biochemistry, 2005, 44, 8533-8542; A-21-K(biotin)NH.sub.2, obtained from NeoMPS (reference SP081233). All the HTRF reagents Mab PT66-K (61T66KLB) and streptavidin-XL665 (610SAXLB), and the SEB reagent, are purchased from Cisbio.The test is carried out in a 384-well plate (Greiner 784076). The serial dilutions are carried out in pure DMSO, and then an intermediate one-in-three dilution in water is carried out, with 1 microliter of each concentration being distributed, all these operations being performed using the Zephyr apparatus (Caliper Life Sciences).

>  <BAO Format ID>  (138) 
BAO_0000357

>  <BAO Label>  (138) 
single protein format

>  <Assay Organism>  (138) 
Homo sapiens

>  <Target ChEMBL ID>  (138) 
CHEMBL4247

>  <Target Name>  (138) 
ALK tyrosine kinase receptor

>  <Target Organism>  (138) 
Homo sapiens

>  <Target Type>  (138) 
SINGLE PROTEIN

>  <Document ChEMBL ID>  (138) 
CHEMBL3639289

>  <Source Description>  (138) 
BindingDB Database

>  <Document Journal>  (138) 
nan

>  <Document Year>  (138) 
2015.0

>  <Active>  (138) 
1.0

>  <bits>  (138) 
<rdkit.DataStructs.cDataStructs.ExplicitBitVect object at 0x000002422F1E3BC0>

>  <Group>  (138) 
G2

$$$$

     RDKit          2D

 41 46  0  0  0  0  0  0  0  0999 V2000
   -1.8373   -5.6601    0.0000 O   0  0  0  0  0  0  0  0  0  0  0  0
   -2.9520   -4.6564    0.0000 C   0  0  0  0  0  0  0  0  0  0  0  0
   -2.6401   -3.1891    0.0000 N   0  0  0  0  0  0  0  0  0  0  0  0
   -1.2135   -2.7256    0.0000 C   0  0  0  0  0  0  0  0  0  0  0  0
   -0.0000   -3.6073    0.0000 N   0  0  0  0  0  0  0  0  0  0  0  0
    1.2135   -2.7256    0.0000 N   0  0  0  0  0  0  0  0  0  0  0  0
    0.7500   -1.2990    0.0000 C   0  0  0  0  0  0  0  0  0  0  0  0
    1.5000    0.0000    0.0000 C   0  0  0  0  0  0  0  0  0  0  0  0
    0.7500    1.2990    0.0000 C   0  0  0  0  0  0  0  0  0  0  0  0
   -0.7500    1.2990    0.0000 C   0  0  0  0  0  0  0  0  0  0  0  0
   -1.5000    2.5981    0.0000 C   0  0  0  0  0  0  0  0  0  0  0  0
   -0.7500    3.8971    0.0000 C   0  0  0  0  0  0  0  0  0  0  0  0
    0.7500    3.8971    0.0000 C   0  0  0  0  0  0  0  0  0  0  0  0
    1.5000    5.1962    0.0000 C   0  0  0  0  0  0  0  0  0  0  0  0
    3.0000    5.1962    0.0000 F   0  0  0  0  0  0  0  0  0  0  0  0
    0.7500    6.4952    0.0000 C   0  0  0  0  0  0  0  0  0  0  0  0
   -0.7500    6.4952    0.0000 C   0  0  0  0  0  0  0  0  0  0  0  0
   -1.5000    7.7942    0.0000 F   0  0  0  0  0  0  0  0  0  0  0  0
   -1.5000    5.1962    0.0000 C   0  0  0  0  0  0  0  0  0  0  0  0
   -1.5000    0.0000    0.0000 C   0  0  0  0  0  0  0  0  0  0  0  0
   -0.7500   -1.2990    0.0000 C   0  0  0  0  0  0  0  0  0  0  0  0
   -4.3786   -5.1199    0.0000 C   0  0  0  0  0  0  0  0  0  0  0  0
   -5.4933   -4.1162    0.0000 C   0  0  0  0  0  0  0  0  0  0  0  0
   -6.9199   -4.5797    0.0000 C   0  0  0  0  0  0  0  0  0  0  0  0
   -7.2317   -6.0469    0.0000 C   0  0  0  0  0  0  0  0  0  0  0  0
   -8.6583   -6.5105    0.0000 C   0  0  0  0  0  0  0  0  0  0  0  0
   -9.7730   -5.5068    0.0000 N   0  0  0  0  0  0  0  0  0  0  0  0
   -9.4612   -4.0396    0.0000 C   0  0  0  0  0  0  0  0  0  0  0  0
  -10.5759   -3.0359    0.0000 C   0  0  0  0  0  0  0  0  0  0  0  0
  -12.0025   -3.4994    0.0000 C   0  0  0  0  0  0  0  0  0  0  0  0
  -12.3143   -4.9666    0.0000 C   0  0  0  0  0  0  0  0  0  0  0  0
  -11.1996   -5.9703    0.0000 C   0  0  0  0  0  0  0  0  0  0  0  0
   -6.1170   -7.0506    0.0000 C   0  0  0  0  0  0  0  0  0  0  0  0
   -4.6904   -6.5871    0.0000 C   0  0  0  0  0  0  0  0  0  0  0  0
   -3.5757   -7.5908    0.0000 N   0  0  0  0  0  0  0  0  0  0  0  0
   -3.8876   -9.0580    0.0000 C   0  0  0  0  0  0  0  0  0  0  0  0
   -5.3142   -9.5216    0.0000 C   0  0  0  0  0  0  0  0  0  0  0  0
   -5.6260  -10.9888    0.0000 C   0  0  0  0  0  0  0  0  0  0  0  0
   -4.5113  -11.9925    0.0000 O   0  0  0  0  0  0  0  0  0  0  0  0
   -3.0847  -11.5290    0.0000 C   0  0  0  0  0  0  0  0  0  0  0  0
   -2.7729  -10.0617    0.0000 C   0  0  0  0  0  0  0  0  0  0  0  0
  1  2  2  0
  2  3  1  0
  3  4  1  0
  4  5  2  0
  5  6  1  0
  6  7  1  0
  7  8  2  0
  8  9  1  0
  9 10  2  0
 10 11  1  0
 11 12  1  0
 12 13  2  0
 13 14  1  0
 14 15  1  0
 14 16  2  0
 16 17  1  0
 17 18  1  0
 17 19  2  0
 10 20  1  0
 20 21  2  0
  2 22  1  0
 22 23  2  0
 23 24  1  0
 24 25  2  0
 25 26  1  0
 26 27  1  0
 27 28  1  0
 28 29  1  0
 29 30  1  0
 30 31  1  0
 31 32  1  0
 25 33  1  0
 33 34  2  0
 34 35  1  0
 35 36  1  0
 36 37  1  0
 37 38  1  0
 38 39  1  0
 39 40  1  0
 40 41  1  0
 21  4  1  0
 34 22  1  0
 41 36  1  0
 21  7  1  0
 32 27  1  0
 19 12  1  0
M  END
>  <Compound_ID>  (139) 
CHEMBL3806112

>  <Molecule Name>  (139) 
nan

>  <Molecular Weight>  (139) 
559.66

>  <AlogP>  (139) 
6.26

>  <Smiles>  (139) 
O=C(Nc1n[nH]c2ccc(Cc3cc(F)cc(F)c3)cc12)c1ccc(CN2CCCCC2)cc1NC1CCOCC1

>  <Standard Type>  (139) 
IC50

>  <Standard Relation>  (139) 
'='

>  <Standard Units>  (139) 
nM

>  <Standard Value>  (139) 
18.0

>  <Assay ChEMBL ID>  (139) 
CHEMBL3806916

>  <Assay Description>  (139) 
Inhibition of recombinant ALK (unknown origin) in presence of gamma33-ATP

>  <BAO Format ID>  (139) 
BAO_0000357

>  <BAO Label>  (139) 
single protein format

>  <Assay Organism>  (139) 
Homo sapiens

>  <Target ChEMBL ID>  (139) 
CHEMBL4247

>  <Target Name>  (139) 
ALK tyrosine kinase receptor

>  <Target Organism>  (139) 
Homo sapiens

>  <Target Type>  (139) 
SINGLE PROTEIN

>  <Document ChEMBL ID>  (139) 
CHEMBL3804811

>  <Source Description>  (139) 
Scientific Literature

>  <Document Journal>  (139) 
J Med Chem

>  <Document Year>  (139) 
2016.0

>  <Active>  (139) 
1.0

>  <bits>  (139) 
<rdkit.DataStructs.cDataStructs.ExplicitBitVect object at 0x000002422F1E2AB0>

>  <Group>  (139) 
G2

$$$$

     RDKit          2D

 42 47  0  0  0  0  0  0  0  0999 V2000
    0.7500   -3.8971    0.0000 C   0  0  0  0  0  0  0  0  0  0  0  0
    1.5000   -2.5981    0.0000 C   0  0  0  0  0  0  0  0  0  0  0  0
    3.0000   -2.5981    0.0000 C   0  0  0  0  0  0  0  0  0  0  0  0
    3.7500   -3.8971    0.0000 C   0  0  0  0  0  0  0  0  0  0  0  0
    5.2500   -3.8971    0.0000 C   0  0  0  0  0  0  0  0  0  0  0  0
    6.0000   -5.1962    0.0000 F   0  0  0  0  0  0  0  0  0  0  0  0
    6.0000   -2.5981    0.0000 C   0  0  0  0  0  0  0  0  0  0  0  0
    5.2500   -1.2990    0.0000 C   0  0  0  0  0  0  0  0  0  0  0  0
    6.0000   -0.0000    0.0000 F   0  0  0  0  0  0  0  0  0  0  0  0
    3.7500   -1.2990    0.0000 C   0  0  0  0  0  0  0  0  0  0  0  0
    0.7500   -1.2990    0.0000 C   0  0  0  0  0  0  0  0  0  0  0  0
    1.5000    0.0000    0.0000 C   0  0  0  0  0  0  0  0  0  0  0  0
    0.7500    1.2990    0.0000 C   0  0  0  0  0  0  0  0  0  0  0  0
   -0.7500    1.2990    0.0000 C   0  0  0  0  0  0  0  0  0  0  0  0
   -1.7537    2.4138    0.0000 N   0  0  0  0  0  0  0  0  0  0  0  0
   -3.1240    1.8037    0.0000 N   0  0  0  0  0  0  0  0  0  0  0  0
   -2.9672    0.3119    0.0000 C   0  0  0  0  0  0  0  0  0  0  0  0
   -4.0819   -0.6918    0.0000 N   0  0  0  0  0  0  0  0  0  0  0  0
   -5.5085   -0.2283    0.0000 C   0  0  0  0  0  0  0  0  0  0  0  0
   -5.8204    1.2389    0.0000 O   0  0  0  0  0  0  0  0  0  0  0  0
   -6.6232   -1.2320    0.0000 C   0  0  0  0  0  0  0  0  0  0  0  0
   -8.0498   -0.7685    0.0000 C   0  0  0  0  0  0  0  0  0  0  0  0
   -9.1645   -1.7722    0.0000 C   0  0  0  0  0  0  0  0  0  0  0  0
   -8.8527   -3.2394    0.0000 C   0  0  0  0  0  0  0  0  0  0  0  0
   -9.9674   -4.2431    0.0000 N   0  0  0  0  0  0  0  0  0  0  0  0
  -11.3940   -3.7796    0.0000 C   0  0  0  0  0  0  0  0  0  0  0  0
  -12.5087   -4.7833    0.0000 C   0  0  0  0  0  0  0  0  0  0  0  0
  -12.1968   -6.2505    0.0000 N   0  0  0  0  0  0  0  0  0  0  0  0
  -13.3115   -7.2542    0.0000 C   0  0  0  0  0  0  0  0  0  0  0  0
  -10.7702   -6.7140    0.0000 C   0  0  0  0  0  0  0  0  0  0  0  0
   -9.6555   -5.7103    0.0000 C   0  0  0  0  0  0  0  0  0  0  0  0
   -7.4261   -3.7029    0.0000 C   0  0  0  0  0  0  0  0  0  0  0  0
   -6.3114   -2.6992    0.0000 C   0  0  0  0  0  0  0  0  0  0  0  0
   -4.8848   -3.1627    0.0000 N   0  0  0  0  0  0  0  0  0  0  0  0
   -4.5729   -4.6300    0.0000 C   0  0  0  0  0  0  0  0  0  0  0  0
   -5.6876   -5.6337    0.0000 C   0  0  0  0  0  0  0  0  0  0  0  0
   -5.3758   -7.1009    0.0000 C   0  0  0  0  0  0  0  0  0  0  0  0
   -3.9492   -7.5644    0.0000 O   0  0  0  0  0  0  0  0  0  0  0  0
   -2.8345   -6.5607    0.0000 C   0  0  0  0  0  0  0  0  0  0  0  0
   -3.1463   -5.0935    0.0000 C   0  0  0  0  0  0  0  0  0  0  0  0
   -1.5000    0.0000    0.0000 C   0  0  0  0  0  0  0  0  0  0  0  0
   -0.7500   -1.2990    0.0000 C   0  0  0  0  0  0  0  0  0  0  0  0
  2  1  1  1
  2  3  1  0
  3  4  2  0
  4  5  1  0
  5  6  1  0
  5  7  2  0
  7  8  1  0
  8  9  1  0
  8 10  2  0
  2 11  1  0
 11 12  2  0
 12 13  1  0
 13 14  2  0
 14 15  1  0
 15 16  1  0
 16 17  2  0
 17 18  1  0
 18 19  1  0
 19 20  2  0
 19 21  1  0
 21 22  2  0
 22 23  1  0
 23 24  2  0
 24 25  1  0
 25 26  1  0
 26 27  1  0
 27 28  1  0
 28 29  1  0
 28 30  1  0
 30 31  1  0
 24 32  1  0
 32 33  2  0
 33 34  1  0
 34 35  1  0
 35 36  1  0
 36 37  1  0
 37 38  1  0
 38 39  1  0
 39 40  1  0
 17 41  1  0
 41 42  2  0
 10  3  1  0
 42 11  1  0
 41 14  1  0
 33 21  1  0
 40 35  1  0
 31 25  1  0
M  END
>  <Compound_ID>  (140) 
CHEMBL3804988

>  <Molecule Name>  (140) 
nan

>  <Molecular Weight>  (140) 
574.68

>  <AlogP>  (140) 
5.59

>  <Smiles>  (140) 
C[C@H](c1cc(F)cc(F)c1)c1ccc2[nH]nc(NC(=O)c3ccc(N4CCN(C)CC4)cc3NC3CCOCC3)c2c1

>  <Standard Type>  (140) 
IC50

>  <Standard Relation>  (140) 
'='

>  <Standard Units>  (140) 
nM

>  <Standard Value>  (140) 
59.0

>  <Assay ChEMBL ID>  (140) 
CHEMBL3806916

>  <Assay Description>  (140) 
Inhibition of recombinant ALK (unknown origin) in presence of gamma33-ATP

>  <BAO Format ID>  (140) 
BAO_0000357

>  <BAO Label>  (140) 
single protein format

>  <Assay Organism>  (140) 
Homo sapiens

>  <Target ChEMBL ID>  (140) 
CHEMBL4247

>  <Target Name>  (140) 
ALK tyrosine kinase receptor

>  <Target Organism>  (140) 
Homo sapiens

>  <Target Type>  (140) 
SINGLE PROTEIN

>  <Document ChEMBL ID>  (140) 
CHEMBL3804811

>  <Source Description>  (140) 
Scientific Literature

>  <Document Journal>  (140) 
J Med Chem

>  <Document Year>  (140) 
2016.0

>  <Active>  (140) 
1.0

>  <bits>  (140) 
<rdkit.DataStructs.cDataStructs.ExplicitBitVect object at 0x000002422F1E2260>

>  <Group>  (140) 
G2

$$$$

     RDKit          2D

 31 35  0  0  0  0  0  0  0  0999 V2000
    2.6491   -3.5623    0.0000 C   0  0  0  0  0  0  0  0  0  0  0  0
    1.5000   -2.5981    0.0000 C   0  0  0  0  0  0  0  0  0  0  0  0
    2.6491   -1.6339    0.0000 C   0  0  0  0  0  0  0  0  0  0  0  0
    0.7500   -1.2990    0.0000 C   0  0  0  0  0  0  0  0  0  0  0  0
    1.5000    0.0000    0.0000 C   0  0  0  0  0  0  0  0  0  0  0  0
    0.7500    1.2990    0.0000 C   0  0  0  0  0  0  0  0  0  0  0  0
    1.5000    2.5981    0.0000 N   0  0  0  0  0  0  0  0  0  0  0  0
    0.8899    3.9684    0.0000 C   0  0  0  0  0  0  0  0  0  0  0  0
    2.0046    4.9721    0.0000 C   0  0  0  0  0  0  0  0  0  0  0  0
    3.3037    4.2221    0.0000 C   0  0  0  0  0  0  0  0  0  0  0  0
    4.6740    4.8322    0.0000 S   0  0  0  0  0  0  0  0  0  0  0  0
    6.0443    5.4423    0.0000 C   0  0  0  0  0  0  0  0  0  0  0  0
    4.0639    6.2025    0.0000 O   0  0  0  0  0  0  0  0  0  0  0  0
    5.2841    3.4619    0.0000 O   0  0  0  0  0  0  0  0  0  0  0  0
    2.9918    2.7549    0.0000 C   0  0  0  0  0  0  0  0  0  0  0  0
   -0.7500    1.2990    0.0000 C   0  0  0  0  0  0  0  0  0  0  0  0
   -1.5000    0.0000    0.0000 C   0  0  0  0  0  0  0  0  0  0  0  0
   -0.7500   -1.2990    0.0000 C   0  0  0  0  0  0  0  0  0  0  0  0
   -1.5000   -2.5981    0.0000 C   0  0  0  0  0  0  0  0  0  0  0  0
   -3.0000   -2.5981    0.0000 O   0  0  0  0  0  0  0  0  0  0  0  0
   -0.7500   -3.8971    0.0000 C   0  0  0  0  0  0  0  0  0  0  0  0
    0.7500   -3.8971    0.0000 C   0  0  0  0  0  0  0  0  0  0  0  0
    1.2135   -5.3237    0.0000 N   0  0  0  0  0  0  0  0  0  0  0  0
    0.0000   -6.2054    0.0000 C   0  0  0  0  0  0  0  0  0  0  0  0
   -0.1568   -7.6972    0.0000 C   0  0  0  0  0  0  0  0  0  0  0  0
   -1.5271   -8.3073    0.0000 C   0  0  0  0  0  0  0  0  0  0  0  0
   -1.6839   -9.7990    0.0000 C   0  0  0  0  0  0  0  0  0  0  0  0
   -1.8407  -11.2908    0.0000 N   0  0  0  0  0  0  0  0  0  0  0  0
   -2.7406   -7.4256    0.0000 C   0  0  0  0  0  0  0  0  0  0  0  0
   -2.5838   -5.9338    0.0000 C   0  0  0  0  0  0  0  0  0  0  0  0
   -1.2135   -5.3237    0.0000 C   0  0  0  0  0  0  0  0  0  0  0  0
  1  2  1  0
  2  3  1  0
  2  4  1  0
  4  5  2  0
  5  6  1  0
  6  7  1  0
  7  8  1  0
  8  9  1  0
  9 10  1  0
 10 11  1  0
 11 12  1  0
 11 13  2  0
 11 14  2  0
 10 15  1  0
  6 16  2  0
 16 17  1  0
 17 18  2  0
 18 19  1  0
 19 20  2  0
 19 21  1  0
 21 22  2  0
 22 23  1  0
 23 24  1  0
 24 25  2  0
 25 26  1  0
 26 27  1  0
 27 28  3  0
 26 29  2  0
 29 30  1  0
 30 31  2  0
 22  2  1  0
 31 24  1  0
 18  4  1  0
 31 21  1  0
 15  7  1  0
M  END
>  <Compound_ID>  (141) 
CHEMBL3936470

>  <Molecule Name>  (141) 
nan

>  <Molecular Weight>  (141) 
433.53

>  <AlogP>  (141) 
3.53

>  <Smiles>  (141) 
CC1(C)c2cc(N3CCC(S(C)(=O)=O)C3)ccc2C(=O)c2c1[nH]c1cc(C#N)ccc21

>  <Standard Type>  (141) 
IC50

>  <Standard Relation>  (141) 
'='

>  <Standard Units>  (141) 
nM

>  <Standard Value>  (141) 
16.23

>  <Assay ChEMBL ID>  (141) 
CHEMBL3887074

>  <Assay Description>  (141) 
Inhibition Assay: ALK-inhibiting activity was measured by following an activity of inhibiting phosphorylation by biotinylated peptide (EGPWLEEEEEAYGWMDF). For the detection of phosphorylation of the biotinylated peptide, time-resolved fluorescence measurement was performed using an anti-phosphorylated tyrosine antibody labeled with europium cryptate and streptavidin conjugated to XL665, i.e., an allophycocyanin derivative.

>  <BAO Format ID>  (141) 
BAO_0000357

>  <BAO Label>  (141) 
single protein format

>  <Assay Organism>  (141) 
Homo sapiens

>  <Target ChEMBL ID>  (141) 
CHEMBL4247

>  <Target Name>  (141) 
ALK tyrosine kinase receptor

>  <Target Organism>  (141) 
Homo sapiens

>  <Target Type>  (141) 
SINGLE PROTEIN

>  <Document ChEMBL ID>  (141) 
CHEMBL3886150

>  <Source Description>  (141) 
BindingDB Database

>  <Document Journal>  (141) 
nan

>  <Document Year>  (141) 
2015.0

>  <Active>  (141) 
1.0

>  <bits>  (141) 
<rdkit.DataStructs.cDataStructs.ExplicitBitVect object at 0x000002422F1E21F0>

>  <Group>  (141) 
G2

$$$$

     RDKit          2D

 46 50  0  0  0  0  0  0  0  0999 V2000
    3.7500   -1.2990    0.0000 C   0  0  0  0  0  0  0  0  0  0  0  0
    3.0000    0.0000    0.0000 O   0  0  0  0  0  0  0  0  0  0  0  0
    1.5000    0.0000    0.0000 C   0  0  0  0  0  0  0  0  0  0  0  0
    0.7500   -1.2990    0.0000 C   0  0  0  0  0  0  0  0  0  0  0  0
   -0.7500   -1.2990    0.0000 C   0  0  0  0  0  0  0  0  0  0  0  0
   -1.5000   -2.5981    0.0000 N   0  0  0  0  0  0  0  0  0  0  0  0
   -3.0000   -2.5981    0.0000 C   0  0  0  0  0  0  0  0  0  0  0  0
   -3.7500   -3.8971    0.0000 C   0  0  0  0  0  0  0  0  0  0  0  0
   -3.0000   -5.1962    0.0000 N   0  0  0  0  0  0  0  0  0  0  0  0
   -3.7500   -6.4952    0.0000 C   0  0  0  0  0  0  0  0  0  0  0  0
   -5.2500   -6.4952    0.0000 C   0  0  0  0  0  0  0  0  0  0  0  0
   -3.0000   -7.7942    0.0000 O   0  0  0  0  0  0  0  0  0  0  0  0
   -1.5000   -5.1962    0.0000 C   0  0  0  0  0  0  0  0  0  0  0  0
   -0.7500   -3.8971    0.0000 C   0  0  0  0  0  0  0  0  0  0  0  0
   -1.5000    0.0000    0.0000 C   0  0  0  0  0  0  0  0  0  0  0  0
   -0.7500    1.2990    0.0000 C   0  0  0  0  0  0  0  0  0  0  0  0
    0.7500    1.2990    0.0000 C   0  0  0  0  0  0  0  0  0  0  0  0
    1.5000    2.5981    0.0000 N   0  0  0  0  0  0  0  0  0  0  0  0
    3.0000    2.5981    0.0000 C   0  0  0  0  0  0  0  0  0  0  0  0
    3.7500    1.2990    0.0000 N   0  0  0  0  0  0  0  0  0  0  0  0
    5.2500    1.2990    0.0000 C   0  0  0  0  0  0  0  0  0  0  0  0
    6.0000    2.5981    0.0000 C   0  0  0  0  0  0  0  0  0  0  0  0
    7.5000    2.5981    0.0000 F   0  0  0  0  0  0  0  0  0  0  0  0
    5.2500    3.8971    0.0000 C   0  0  0  0  0  0  0  0  0  0  0  0
    6.0000    5.1962    0.0000 N   0  0  0  0  0  0  0  0  0  0  0  0
    5.2500    6.4952    0.0000 C   0  0  0  0  0  0  0  0  0  0  0  0
    6.0000    7.7942    0.0000 C   0  0  0  0  0  0  0  0  0  0  0  0
    5.2500    9.0933    0.0000 C   0  0  0  0  0  0  0  0  0  0  0  0
    3.7500    9.0933    0.0000 C   0  0  0  0  0  0  0  0  0  0  0  0
    3.0000   10.3923    0.0000 N   0  0  0  0  0  0  0  0  0  0  0  0
    3.7500   11.6913    0.0000 C   0  0  0  0  0  0  0  0  0  0  0  0
    3.0000   12.9904    0.0000 C   0  0  0  0  0  0  0  0  0  0  0  0
    1.5000   12.9904    0.0000 N   0  0  0  0  0  0  0  0  0  0  0  0
    0.7500   14.2894    0.0000 S   0  0  0  0  0  0  0  0  0  0  0  0
    0.0000   15.5885    0.0000 C   0  0  0  0  0  0  0  0  0  0  0  0
   -0.5490   13.5394    0.0000 O   0  0  0  0  0  0  0  0  0  0  0  0
    2.0490   15.0394    0.0000 O   0  0  0  0  0  0  0  0  0  0  0  0
    0.7500   11.6913    0.0000 C   0  0  0  0  0  0  0  0  0  0  0  0
    1.5000   10.3923    0.0000 C   0  0  0  0  0  0  0  0  0  0  0  0
    3.0000    7.7942    0.0000 C   0  0  0  0  0  0  0  0  0  0  0  0
    3.7500    6.4952    0.0000 C   0  0  0  0  0  0  0  0  0  0  0  0
    3.0000    5.1962    0.0000 O   0  0  0  0  0  0  0  0  0  0  0  0
    1.5000    5.1962    0.0000 C   0  0  0  0  0  0  0  0  0  0  0  0
    0.7500    3.8971    0.0000 F   0  0  0  0  0  0  0  0  0  0  0  0
    0.7500    6.4952    0.0000 F   0  0  0  0  0  0  0  0  0  0  0  0
    3.7500    3.8971    0.0000 N   0  0  0  0  0  0  0  0  0  0  0  0
  1  2  1  0
  2  3  1  0
  3  4  2  0
  4  5  1  0
  5  6  1  0
  6  7  1  0
  7  8  1  0
  8  9  1  0
  9 10  1  0
 10 11  1  0
 10 12  2  0
  9 13  1  0
 13 14  1  0
  5 15  2  0
 15 16  1  0
 16 17  2  0
 17 18  1  0
 18 19  1  0
 19 20  2  0
 20 21  1  0
 21 22  2  0
 22 23  1  0
 22 24  1  0
 24 25  1  0
 25 26  1  0
 26 27  2  0
 27 28  1  0
 28 29  2  0
 29 30  1  0
 30 31  1  0
 31 32  1  0
 32 33  1  0
 33 34  1  0
 34 35  1  0
 34 36  2  0
 34 37  2  0
 33 38  1  0
 38 39  1  0
 29 40  1  0
 40 41  2  0
 41 42  1  0
 42 43  1  0
 43 44  1  0
 43 45  1  0
 24 46  2  0
 17  3  1  0
 46 19  1  0
 14  6  1  0
 41 26  1  0
 39 30  1  0
M  END
>  <Compound_ID>  (142) 
CHEMBL3958376

>  <Molecule Name>  (142) 
nan

>  <Molecular Weight>  (142) 
664.71

>  <AlogP>  (142) 
3.46

>  <Smiles>  (142) 
COc1cc(N2CCN(C(C)=O)CC2)ccc1Nc1ncc(F)c(Nc2ccc(N3CCN(S(C)(=O)=O)CC3)cc2OC(F)F)n1

>  <Standard Type>  (142) 
IC50

>  <Standard Relation>  (142) 
'='

>  <Standard Units>  (142) 
nM

>  <Standard Value>  (142) 
29.0

>  <Assay ChEMBL ID>  (142) 
CHEMBL3887132

>  <Assay Description>  (142) 
Homogeneous Time-resolved fluorescence (HTRF) Assay: In order to measure the inhibitory activity against ALK, a Grainer 96-well round type bottom plate was added with the compounds (2 μl) prepared in Examples 1 to 89, and mixed with ALK enzyme (1 ul) and a peptide substrate (2 μl) with biotin attached thereto for 15 minutes and cultured thereafter. Here, ATP solution (5 μl) was added thereto and kinase reaction was performed at room temperature for 30 minutes. XL 665 (5 μl), to which Streptavidin dissolved in ethylenediaminetetraacetic acid solution was attached, anti-phosphotyrosine antibody (5 μl), to which europium (Eu3+) was attached, were added to a reaction solution to stop the reaction, cultured for 1 hour, and analyzed using Homogeneous Time-resolved fluorescence (HTRF, Cisbio). The result was read by a Wallac Envision 2103 device at the wavelength range of 615/665 nm.

>  <BAO Format ID>  (142) 
BAO_0000357

>  <BAO Label>  (142) 
single protein format

>  <Assay Organism>  (142) 
Homo sapiens

>  <Target ChEMBL ID>  (142) 
CHEMBL4247

>  <Target Name>  (142) 
ALK tyrosine kinase receptor

>  <Target Organism>  (142) 
Homo sapiens

>  <Target Type>  (142) 
SINGLE PROTEIN

>  <Document ChEMBL ID>  (142) 
CHEMBL3886178

>  <Source Description>  (142) 
BindingDB Database

>  <Document Journal>  (142) 
nan

>  <Document Year>  (142) 
2015.0

>  <Active>  (142) 
1.0

>  <bits>  (142) 
<rdkit.DataStructs.cDataStructs.ExplicitBitVect object at 0x000002422F1E1E70>

>  <Group>  (142) 
G2

$$$$

     RDKit          2D

 44 48  0  0  0  0  0  0  0  0999 V2000
    5.2500   -1.2990    0.0000 C   0  0  0  0  0  0  0  0  0  0  0  0
    3.7500   -1.2990    0.0000 O   0  0  0  0  0  0  0  0  0  0  0  0
    3.0000    0.0000    0.0000 C   0  0  0  0  0  0  0  0  0  0  0  0
    3.7500    1.2990    0.0000 O   0  0  0  0  0  0  0  0  0  0  0  0
    1.5000    0.0000    0.0000 N   0  0  0  0  0  0  0  0  0  0  0  0
    0.7500   -1.2990    0.0000 C   0  0  0  0  0  0  0  0  0  0  0  0
   -0.7500   -1.2990    0.0000 C   0  0  0  0  0  0  0  0  0  0  0  0
   -1.5000    0.0000    0.0000 N   0  0  0  0  0  0  0  0  0  0  0  0
   -3.0000    0.0000    0.0000 C   0  0  0  0  0  0  0  0  0  0  0  0
   -3.7500    1.2990    0.0000 C   0  0  0  0  0  0  0  0  0  0  0  0
   -5.2500    1.2990    0.0000 C   0  0  0  0  0  0  0  0  0  0  0  0
   -6.0000    0.0000    0.0000 C   0  0  0  0  0  0  0  0  0  0  0  0
   -7.5000    0.0000    0.0000 N   0  0  0  0  0  0  0  0  0  0  0  0
   -8.2500    1.2990    0.0000 C   0  0  0  0  0  0  0  0  0  0  0  0
   -7.5000    2.5981    0.0000 N   0  0  0  0  0  0  0  0  0  0  0  0
   -8.2500    3.8971    0.0000 C   0  0  0  0  0  0  0  0  0  0  0  0
   -7.5000    5.1962    0.0000 N   0  0  0  0  0  0  0  0  0  0  0  0
   -6.0000    5.1962    0.0000 C   0  0  0  0  0  0  0  0  0  0  0  0
   -5.2500    3.8971    0.0000 C   0  0  0  0  0  0  0  0  0  0  0  0
   -3.7500    3.8971    0.0000 C   0  0  0  0  0  0  0  0  0  0  0  0
   -3.0000    5.1962    0.0000 C   0  0  0  0  0  0  0  0  0  0  0  0
   -1.5000    5.1962    0.0000 N   0  0  0  0  0  0  0  0  0  0  0  0
   -0.7500    3.8971    0.0000 C   0  0  0  0  0  0  0  0  0  0  0  0
    0.7500    3.8971    0.0000 C   0  0  0  0  0  0  0  0  0  0  0  0
    1.5000    5.1962    0.0000 N   0  0  0  0  0  0  0  0  0  0  0  0
    3.0000    5.1962    0.0000 C   0  0  0  0  0  0  0  0  0  0  0  0
    3.7500    3.8971    0.0000 C   0  0  0  0  0  0  0  0  0  0  0  0
    3.7500    6.4952    0.0000 O   0  0  0  0  0  0  0  0  0  0  0  0
    0.7500    6.4952    0.0000 C   0  0  0  0  0  0  0  0  0  0  0  0
   -0.7500    6.4952    0.0000 C   0  0  0  0  0  0  0  0  0  0  0  0
   -3.7500    6.4952    0.0000 C   0  0  0  0  0  0  0  0  0  0  0  0
   -5.2500    6.4952    0.0000 C   0  0  0  0  0  0  0  0  0  0  0  0
   -6.0000    7.7942    0.0000 O   0  0  0  0  0  0  0  0  0  0  0  0
   -5.2500    9.0933    0.0000 C   0  0  0  0  0  0  0  0  0  0  0  0
   -9.7500    3.8971    0.0000 N   0  0  0  0  0  0  0  0  0  0  0  0
  -10.5000    2.5981    0.0000 C   0  0  0  0  0  0  0  0  0  0  0  0
   -9.7500    1.2990    0.0000 C   0  0  0  0  0  0  0  0  0  0  0  0
  -10.5000   -0.0000    0.0000 F   0  0  0  0  0  0  0  0  0  0  0  0
   -5.2500   -1.2990    0.0000 C   0  0  0  0  0  0  0  0  0  0  0  0
   -6.0000   -2.5981    0.0000 O   0  0  0  0  0  0  0  0  0  0  0  0
   -5.2500   -3.8971    0.0000 C   0  0  0  0  0  0  0  0  0  0  0  0
   -3.7500   -1.2990    0.0000 C   0  0  0  0  0  0  0  0  0  0  0  0
   -0.7500    1.2990    0.0000 C   0  0  0  0  0  0  0  0  0  0  0  0
    0.7500    1.2990    0.0000 C   0  0  0  0  0  0  0  0  0  0  0  0
  1  2  1  0
  2  3  1  0
  3  4  2  0
  3  5  1  0
  5  6  1  0
  6  7  1  0
  7  8  1  0
  8  9  1  0
  9 10  2  0
 10 11  1  0
 11 12  2  0
 12 13  1  0
 13 14  1  0
 14 15  2  0
 15 16  1  0
 16 17  1  0
 17 18  1  0
 18 19  2  0
 19 20  1  0
 20 21  2  0
 21 22  1  0
 22 23  1  0
 23 24  1  0
 24 25  1  0
 25 26  1  0
 26 27  1  0
 26 28  2  0
 25 29  1  0
 29 30  1  0
 21 31  1  0
 31 32  2  0
 32 33  1  0
 33 34  1  0
 16 35  2  0
 35 36  1  0
 36 37  2  0
 37 38  1  0
 12 39  1  0
 39 40  1  0
 40 41  1  0
 39 42  2  0
  8 43  1  0
 43 44  1  0
 44  5  1  0
 42  9  1  0
 37 14  1  0
 32 18  1  0
 30 22  1  0
M  END
>  <Compound_ID>  (143) 
CHEMBL3985471

>  <Molecule Name>  (143) 
nan

>  <Molecular Weight>  (143) 
608.68

>  <AlogP>  (143) 
3.68

>  <Smiles>  (143) 
COC(=O)N1CCN(c2ccc(Nc3nc(Nc4ccc(N5CCN(C(C)=O)CC5)cc4OC)ncc3F)c(OC)c2)CC1

>  <Standard Type>  (143) 
IC50

>  <Standard Relation>  (143) 
'='

>  <Standard Units>  (143) 
nM

>  <Standard Value>  (143) 
19.0

>  <Assay ChEMBL ID>  (143) 
CHEMBL3887132

>  <Assay Description>  (143) 
Homogeneous Time-resolved fluorescence (HTRF) Assay: In order to measure the inhibitory activity against ALK, a Grainer 96-well round type bottom plate was added with the compounds (2 μl) prepared in Examples 1 to 89, and mixed with ALK enzyme (1 ul) and a peptide substrate (2 μl) with biotin attached thereto for 15 minutes and cultured thereafter. Here, ATP solution (5 μl) was added thereto and kinase reaction was performed at room temperature for 30 minutes. XL 665 (5 μl), to which Streptavidin dissolved in ethylenediaminetetraacetic acid solution was attached, anti-phosphotyrosine antibody (5 μl), to which europium (Eu3+) was attached, were added to a reaction solution to stop the reaction, cultured for 1 hour, and analyzed using Homogeneous Time-resolved fluorescence (HTRF, Cisbio). The result was read by a Wallac Envision 2103 device at the wavelength range of 615/665 nm.

>  <BAO Format ID>  (143) 
BAO_0000357

>  <BAO Label>  (143) 
single protein format

>  <Assay Organism>  (143) 
Homo sapiens

>  <Target ChEMBL ID>  (143) 
CHEMBL4247

>  <Target Name>  (143) 
ALK tyrosine kinase receptor

>  <Target Organism>  (143) 
Homo sapiens

>  <Target Type>  (143) 
SINGLE PROTEIN

>  <Document ChEMBL ID>  (143) 
CHEMBL3886178

>  <Source Description>  (143) 
BindingDB Database

>  <Document Journal>  (143) 
nan

>  <Document Year>  (143) 
2015.0

>  <Active>  (143) 
1.0

>  <bits>  (143) 
<rdkit.DataStructs.cDataStructs.ExplicitBitVect object at 0x000002422F1E1AF0>

>  <Group>  (143) 
G2

$$$$

     RDKit          2D

 45 49  0  0  0  0  0  0  0  0999 V2000
    6.0000   -2.5981    0.0000 C   0  0  0  0  0  0  0  0  0  0  0  0
    5.2500   -1.2990    0.0000 C   0  0  0  0  0  0  0  0  0  0  0  0
    3.7500   -1.2990    0.0000 N   0  0  0  0  0  0  0  0  0  0  0  0
    3.0000    0.0000    0.0000 C   0  0  0  0  0  0  0  0  0  0  0  0
    3.7500    1.2990    0.0000 O   0  0  0  0  0  0  0  0  0  0  0  0
    1.5000    0.0000    0.0000 N   0  0  0  0  0  0  0  0  0  0  0  0
    0.7500   -1.2990    0.0000 C   0  0  0  0  0  0  0  0  0  0  0  0
   -0.7500   -1.2990    0.0000 C   0  0  0  0  0  0  0  0  0  0  0  0
   -1.5000    0.0000    0.0000 N   0  0  0  0  0  0  0  0  0  0  0  0
   -3.0000    0.0000    0.0000 C   0  0  0  0  0  0  0  0  0  0  0  0
   -3.7500    1.2990    0.0000 C   0  0  0  0  0  0  0  0  0  0  0  0
   -5.2500    1.2990    0.0000 C   0  0  0  0  0  0  0  0  0  0  0  0
   -6.0000    0.0000    0.0000 C   0  0  0  0  0  0  0  0  0  0  0  0
   -7.5000    0.0000    0.0000 N   0  0  0  0  0  0  0  0  0  0  0  0
   -8.2500    1.2990    0.0000 C   0  0  0  0  0  0  0  0  0  0  0  0
   -7.5000    2.5981    0.0000 N   0  0  0  0  0  0  0  0  0  0  0  0
   -8.2500    3.8971    0.0000 C   0  0  0  0  0  0  0  0  0  0  0  0
   -7.5000    5.1962    0.0000 N   0  0  0  0  0  0  0  0  0  0  0  0
   -6.0000    5.1962    0.0000 C   0  0  0  0  0  0  0  0  0  0  0  0
   -5.2500    3.8971    0.0000 C   0  0  0  0  0  0  0  0  0  0  0  0
   -3.7500    3.8971    0.0000 C   0  0  0  0  0  0  0  0  0  0  0  0
   -3.0000    5.1962    0.0000 C   0  0  0  0  0  0  0  0  0  0  0  0
   -1.5000    5.1962    0.0000 N   0  0  0  0  0  0  0  0  0  0  0  0
   -0.7500    3.8971    0.0000 C   0  0  0  0  0  0  0  0  0  0  0  0
    0.7500    3.8971    0.0000 C   0  0  0  0  0  0  0  0  0  0  0  0
    1.5000    5.1962    0.0000 N   0  0  0  0  0  0  0  0  0  0  0  0
    3.0000    5.1962    0.0000 C   0  0  0  0  0  0  0  0  0  0  0  0
    3.7500    3.8971    0.0000 C   0  0  0  0  0  0  0  0  0  0  0  0
    3.7500    6.4952    0.0000 O   0  0  0  0  0  0  0  0  0  0  0  0
    0.7500    6.4952    0.0000 C   0  0  0  0  0  0  0  0  0  0  0  0
   -0.7500    6.4952    0.0000 C   0  0  0  0  0  0  0  0  0  0  0  0
   -3.7500    6.4952    0.0000 C   0  0  0  0  0  0  0  0  0  0  0  0
   -5.2500    6.4952    0.0000 C   0  0  0  0  0  0  0  0  0  0  0  0
   -6.0000    7.7942    0.0000 O   0  0  0  0  0  0  0  0  0  0  0  0
   -5.2500    9.0933    0.0000 C   0  0  0  0  0  0  0  0  0  0  0  0
   -9.7500    3.8971    0.0000 N   0  0  0  0  0  0  0  0  0  0  0  0
  -10.5000    2.5981    0.0000 C   0  0  0  0  0  0  0  0  0  0  0  0
   -9.7500    1.2990    0.0000 C   0  0  0  0  0  0  0  0  0  0  0  0
  -10.5000   -0.0000    0.0000 F   0  0  0  0  0  0  0  0  0  0  0  0
   -5.2500   -1.2990    0.0000 C   0  0  0  0  0  0  0  0  0  0  0  0
   -6.0000   -2.5981    0.0000 O   0  0  0  0  0  0  0  0  0  0  0  0
   -5.2500   -3.8971    0.0000 C   0  0  0  0  0  0  0  0  0  0  0  0
   -3.7500   -1.2990    0.0000 C   0  0  0  0  0  0  0  0  0  0  0  0
   -0.7500    1.2990    0.0000 C   0  0  0  0  0  0  0  0  0  0  0  0
    0.7500    1.2990    0.0000 C   0  0  0  0  0  0  0  0  0  0  0  0
  1  2  1  0
  2  3  1  0
  3  4  1  0
  4  5  2  0
  4  6  1  0
  6  7  1  0
  7  8  1  0
  8  9  1  0
  9 10  1  0
 10 11  2  0
 11 12  1  0
 12 13  2  0
 13 14  1  0
 14 15  1  0
 15 16  2  0
 16 17  1  0
 17 18  1  0
 18 19  1  0
 19 20  2  0
 20 21  1  0
 21 22  2  0
 22 23  1  0
 23 24  1  0
 24 25  1  0
 25 26  1  0
 26 27  1  0
 27 28  1  0
 27 29  2  0
 26 30  1  0
 30 31  1  0
 22 32  1  0
 32 33  2  0
 33 34  1  0
 34 35  1  0
 17 36  2  0
 36 37  1  0
 37 38  2  0
 38 39  1  0
 13 40  1  0
 40 41  1  0
 41 42  1  0
 40 43  2  0
  9 44  1  0
 44 45  1  0
 45  6  1  0
 43 10  1  0
 38 15  1  0
 33 19  1  0
 31 23  1  0
M  END
>  <Compound_ID>  (144) 
CHEMBL3906824

>  <Molecule Name>  (144) 
nan

>  <Molecular Weight>  (144) 
621.72

>  <AlogP>  (144) 
3.64

>  <Smiles>  (144) 
CCNC(=O)N1CCN(c2ccc(Nc3nc(Nc4ccc(N5CCN(C(C)=O)CC5)cc4OC)ncc3F)c(OC)c2)CC1

>  <Standard Type>  (144) 
IC50

>  <Standard Relation>  (144) 
'='

>  <Standard Units>  (144) 
nM

>  <Standard Value>  (144) 
31.0

>  <Assay ChEMBL ID>  (144) 
CHEMBL3887132

>  <Assay Description>  (144) 
Homogeneous Time-resolved fluorescence (HTRF) Assay: In order to measure the inhibitory activity against ALK, a Grainer 96-well round type bottom plate was added with the compounds (2 μl) prepared in Examples 1 to 89, and mixed with ALK enzyme (1 ul) and a peptide substrate (2 μl) with biotin attached thereto for 15 minutes and cultured thereafter. Here, ATP solution (5 μl) was added thereto and kinase reaction was performed at room temperature for 30 minutes. XL 665 (5 μl), to which Streptavidin dissolved in ethylenediaminetetraacetic acid solution was attached, anti-phosphotyrosine antibody (5 μl), to which europium (Eu3+) was attached, were added to a reaction solution to stop the reaction, cultured for 1 hour, and analyzed using Homogeneous Time-resolved fluorescence (HTRF, Cisbio). The result was read by a Wallac Envision 2103 device at the wavelength range of 615/665 nm.

>  <BAO Format ID>  (144) 
BAO_0000357

>  <BAO Label>  (144) 
single protein format

>  <Assay Organism>  (144) 
Homo sapiens

>  <Target ChEMBL ID>  (144) 
CHEMBL4247

>  <Target Name>  (144) 
ALK tyrosine kinase receptor

>  <Target Organism>  (144) 
Homo sapiens

>  <Target Type>  (144) 
SINGLE PROTEIN

>  <Document ChEMBL ID>  (144) 
CHEMBL3886178

>  <Source Description>  (144) 
BindingDB Database

>  <Document Journal>  (144) 
nan

>  <Document Year>  (144) 
2015.0

>  <Active>  (144) 
1.0

>  <bits>  (144) 
<rdkit.DataStructs.cDataStructs.ExplicitBitVect object at 0x000002422F1E1690>

>  <Group>  (144) 
G2

$$$$

     RDKit          2D

 40 44  0  0  0  0  0  0  0  0999 V2000
    3.7500   -1.2990    0.0000 C   0  0  0  0  0  0  0  0  0  0  0  0
    3.0000    0.0000    0.0000 O   0  0  0  0  0  0  0  0  0  0  0  0
    1.5000    0.0000    0.0000 C   0  0  0  0  0  0  0  0  0  0  0  0
    0.7500   -1.2990    0.0000 C   0  0  0  0  0  0  0  0  0  0  0  0
   -0.7500   -1.2990    0.0000 C   0  0  0  0  0  0  0  0  0  0  0  0
   -1.5000   -2.5981    0.0000 N   0  0  0  0  0  0  0  0  0  0  0  0
   -3.0000   -2.5981    0.0000 C   0  0  0  0  0  0  0  0  0  0  0  0
   -3.7500   -3.8971    0.0000 C   0  0  0  0  0  0  0  0  0  0  0  0
   -3.0000   -5.1962    0.0000 C   0  0  0  0  0  0  0  0  0  0  0  0
   -3.7500   -6.4952    0.0000 N   0  0  0  0  0  0  0  0  0  0  0  0
   -5.2500   -6.4952    0.0000 C   0  0  0  0  0  0  0  0  0  0  0  0
   -6.0000   -7.7942    0.0000 C   0  0  0  0  0  0  0  0  0  0  0  0
   -5.2500   -9.0933    0.0000 N   0  0  0  0  0  0  0  0  0  0  0  0
   -6.0000  -10.3923    0.0000 C   0  0  0  0  0  0  0  0  0  0  0  0
   -3.7500   -9.0933    0.0000 C   0  0  0  0  0  0  0  0  0  0  0  0
   -3.0000   -7.7942    0.0000 C   0  0  0  0  0  0  0  0  0  0  0  0
   -1.5000   -5.1962    0.0000 C   0  0  0  0  0  0  0  0  0  0  0  0
   -0.7500   -3.8971    0.0000 C   0  0  0  0  0  0  0  0  0  0  0  0
   -1.5000    0.0000    0.0000 C   0  0  0  0  0  0  0  0  0  0  0  0
   -0.7500    1.2990    0.0000 C   0  0  0  0  0  0  0  0  0  0  0  0
    0.7500    1.2990    0.0000 C   0  0  0  0  0  0  0  0  0  0  0  0
    1.5000    2.5981    0.0000 N   0  0  0  0  0  0  0  0  0  0  0  0
    3.0000    2.5981    0.0000 C   0  0  0  0  0  0  0  0  0  0  0  0
    3.7500    1.2990    0.0000 N   0  0  0  0  0  0  0  0  0  0  0  0
    5.2500    1.2990    0.0000 C   0  0  0  0  0  0  0  0  0  0  0  0
    6.0000    2.5981    0.0000 C   0  0  0  0  0  0  0  0  0  0  0  0
    7.5000    2.5981    0.0000 F   0  0  0  0  0  0  0  0  0  0  0  0
    5.2500    3.8971    0.0000 C   0  0  0  0  0  0  0  0  0  0  0  0
    6.0000    5.1962    0.0000 N   0  0  0  0  0  0  0  0  0  0  0  0
    5.2500    6.4952    0.0000 C   0  0  0  0  0  0  0  0  0  0  0  0
    3.7500    6.4952    0.0000 C   0  0  0  0  0  0  0  0  0  0  0  0
    3.0000    7.7942    0.0000 C   0  0  0  0  0  0  0  0  0  0  0  0
    3.7500    9.0933    0.0000 C   0  0  0  0  0  0  0  0  0  0  0  0
    5.2500    9.0933    0.0000 C   0  0  0  0  0  0  0  0  0  0  0  0
    6.0000    7.7942    0.0000 C   0  0  0  0  0  0  0  0  0  0  0  0
    7.5000    7.7942    0.0000 P   0  0  0  0  0  0  0  0  0  0  0  0
    7.5000    6.2942    0.0000 C   0  0  0  0  0  0  0  0  0  0  0  0
    7.5000    9.2942    0.0000 C   0  0  0  0  0  0  0  0  0  0  0  0
    9.0000    7.7942    0.0000 O   0  0  0  0  0  0  0  0  0  0  0  0
    3.7500    3.8971    0.0000 N   0  0  0  0  0  0  0  0  0  0  0  0
  1  2  1  0
  2  3  1  0
  3  4  2  0
  4  5  1  0
  5  6  1  0
  6  7  1  0
  7  8  1  0
  8  9  1  0
  9 10  1  0
 10 11  1  0
 11 12  1  0
 12 13  1  0
 13 14  1  0
 13 15  1  0
 15 16  1  0
  9 17  1  0
 17 18  1  0
  5 19  2  0
 19 20  1  0
 20 21  2  0
 21 22  1  0
 22 23  1  0
 23 24  2  0
 24 25  1  0
 25 26  2  0
 26 27  1  0
 26 28  1  0
 28 29  1  0
 29 30  1  0
 30 31  2  0
 31 32  1  0
 32 33  2  0
 33 34  1  0
 34 35  2  0
 35 36  1  0
 36 37  1  0
 36 38  1  0
 36 39  2  0
 28 40  2  0
 21  3  1  0
 40 23  1  0
 18  6  1  0
 35 30  1  0
 16 10  1  0
M  END
>  <Compound_ID>  (145) 
CHEMBL3823296

>  <Molecule Name>  (145) 
nan

>  <Molecular Weight>  (145) 
567.65

>  <AlogP>  (145) 
4.58

>  <Smiles>  (145) 
COc1cc(N2CCC(N3CCN(C)CC3)CC2)ccc1Nc1ncc(F)c(Nc2ccccc2P(C)(C)=O)n1

>  <Standard Type>  (145) 
IC50

>  <Standard Relation>  (145) 
'='

>  <Standard Units>  (145) 
nM

>  <Standard Value>  (145) 
0.39

>  <Assay ChEMBL ID>  (145) 
CHEMBL3824709

>  <Assay Description>  (145) 
Inhibition of human ALK using poly[Glu:Tyr] (4:1) as substrate and [gamma-33P]ATP measured after 1 hr

>  <BAO Format ID>  (145) 
BAO_0000357

>  <BAO Label>  (145) 
single protein format

>  <Assay Organism>  (145) 
Homo sapiens

>  <Target ChEMBL ID>  (145) 
CHEMBL4247

>  <Target Name>  (145) 
ALK tyrosine kinase receptor

>  <Target Organism>  (145) 
Homo sapiens

>  <Target Type>  (145) 
SINGLE PROTEIN

>  <Document ChEMBL ID>  (145) 
CHEMBL3822358

>  <Source Description>  (145) 
Scientific Literature

>  <Document Journal>  (145) 
J Med Chem

>  <Document Year>  (145) 
2016.0

>  <Active>  (145) 
1.0

>  <bits>  (145) 
<rdkit.DataStructs.cDataStructs.ExplicitBitVect object at 0x000002422F1E0AC0>

>  <Group>  (145) 
G2

$$$$

     RDKit          2D

 38 42  0  0  0  0  0  0  0  0999 V2000
    3.7500   -6.4952    0.0000 C   0  0  0  0  0  0  0  0  0  0  0  0
    3.0000   -5.1962    0.0000 O   0  0  0  0  0  0  0  0  0  0  0  0
    1.5000   -5.1962    0.0000 C   0  0  0  0  0  0  0  0  0  0  0  0
    0.7500   -6.4952    0.0000 C   0  0  0  0  0  0  0  0  0  0  0  0
   -0.7500   -6.4952    0.0000 C   0  0  0  0  0  0  0  0  0  0  0  0
   -1.5000   -7.7942    0.0000 C   0  0  0  0  0  0  0  0  0  0  0  0
   -2.6491   -6.8300    0.0000 O   0  0  0  0  0  0  0  0  0  0  0  0
   -0.0905   -8.3073    0.0000 C   0  0  0  0  0  0  0  0  0  0  0  0
    0.1700   -9.7845    0.0000 C   0  0  0  0  0  0  0  0  0  0  0  0
   -0.9791  -10.7487    0.0000 N   0  0  0  0  0  0  0  0  0  0  0  0
   -0.7186  -12.2259    0.0000 C   0  0  0  0  0  0  0  0  0  0  0  0
   -1.8676  -13.1900    0.0000 C   0  0  0  0  0  0  0  0  0  0  0  0
   -1.6072  -14.6673    0.0000 N   0  0  0  0  0  0  0  0  0  0  0  0
   -3.2772  -12.6770    0.0000 O   0  0  0  0  0  0  0  0  0  0  0  0
   -2.3886  -10.2356    0.0000 C   0  0  0  0  0  0  0  0  0  0  0  0
   -2.6491   -8.7584    0.0000 C   0  0  0  0  0  0  0  0  0  0  0  0
   -4.0586   -8.2454    0.0000 O   0  0  0  0  0  0  0  0  0  0  0  0
   -1.5000   -5.1962    0.0000 C   0  0  0  0  0  0  0  0  0  0  0  0
   -0.7500   -3.8971    0.0000 C   0  0  0  0  0  0  0  0  0  0  0  0
    0.7500   -3.8971    0.0000 C   0  0  0  0  0  0  0  0  0  0  0  0
    1.5000   -2.5981    0.0000 N   0  0  0  0  0  0  0  0  0  0  0  0
    0.7500   -1.2990    0.0000 C   0  0  0  0  0  0  0  0  0  0  0  0
    1.5000    0.0000    0.0000 N   0  0  0  0  0  0  0  0  0  0  0  0
    0.7500    1.2990    0.0000 C   0  0  0  0  0  0  0  0  0  0  0  0
   -0.7500    1.2990    0.0000 C   0  0  0  0  0  0  0  0  0  0  0  0
   -1.7537    2.4138    0.0000 C   0  0  0  0  0  0  0  0  0  0  0  0
   -3.1240    1.8037    0.0000 C   0  0  0  0  0  0  0  0  0  0  0  0
   -2.9672    0.3119    0.0000 C   0  0  0  0  0  0  0  0  0  0  0  0
   -4.0819   -0.6918    0.0000 C   0  0  0  0  0  0  0  0  0  0  0  0
   -5.5085   -0.2283    0.0000 C   0  0  0  0  0  0  0  0  0  0  0  0
   -6.6232   -1.2320    0.0000 C   0  0  0  0  0  0  0  0  0  0  0  0
   -6.3114   -2.6992    0.0000 C   0  0  0  0  0  0  0  0  0  0  0  0
   -4.8848   -3.1627    0.0000 C   0  0  0  0  0  0  0  0  0  0  0  0
   -3.7701   -2.1590    0.0000 C   0  0  0  0  0  0  0  0  0  0  0  0
   -2.3435   -2.6226    0.0000 O   0  0  0  0  0  0  0  0  0  0  0  0
   -2.0316   -4.0898    0.0000 C   0  0  0  0  0  0  0  0  0  0  0  0
   -1.5000    0.0000    0.0000 N   0  0  0  0  0  0  0  0  0  0  0  0
   -0.7500   -1.2990    0.0000 N   0  0  0  0  0  0  0  0  0  0  0  0
  1  2  1  0
  2  3  1  0
  3  4  2  0
  4  5  1  0
  5  6  1  0
  6  7  1  6
  6  8  1  0
  8  9  1  0
  9 10  1  0
 10 11  1  0
 11 12  1  0
 12 13  1  0
 12 14  2  0
 10 15  1  0
 15 16  1  0
 16 17  1  6
  5 18  2  0
 18 19  1  0
 19 20  2  0
 20 21  1  0
 21 22  1  0
 22 23  1  0
 23 24  2  0
 24 25  1  0
 25 26  2  0
 26 27  1  0
 27 28  2  0
 28 29  1  0
 29 30  2  0
 30 31  1  0
 31 32  2  0
 32 33  1  0
 33 34  2  0
 34 35  1  0
 35 36  1  0
 28 37  1  0
 37 38  1  0
 20  3  1  0
 38 22  2  0
 16  6  1  0
 37 25  1  0
 34 29  1  0
M  END
>  <Compound_ID>  (146) 
CHEMBL3398171

>  <Molecule Name>  (146) 
nan

>  <Molecular Weight>  (146) 
518.57

>  <AlogP>  (146) 
1.90

>  <Smiles>  (146) 
COc1cc([C@@]2(O)CCN(CC(N)=O)C[C@@H]2O)ccc1Nc1ncc2ccc(-c3ccccc3OC)n2n1

>  <Standard Type>  (146) 
IC50

>  <Standard Relation>  (146) 
'='

>  <Standard Units>  (146) 
nM

>  <Standard Value>  (146) 
60.0

>  <Assay ChEMBL ID>  (146) 
CHEMBL3398706

>  <Assay Description>  (146) 
Inhibition of ALK (unknown origin) by cellular assay

>  <BAO Format ID>  (146) 
BAO_0000357

>  <BAO Label>  (146) 
single protein format

>  <Assay Organism>  (146) 
Homo sapiens

>  <Target ChEMBL ID>  (146) 
CHEMBL4247

>  <Target Name>  (146) 
ALK tyrosine kinase receptor

>  <Target Organism>  (146) 
Homo sapiens

>  <Target Type>  (146) 
SINGLE PROTEIN

>  <Document ChEMBL ID>  (146) 
CHEMBL3396997

>  <Source Description>  (146) 
Scientific Literature

>  <Document Journal>  (146) 
Bioorg Med Chem Lett

>  <Document Year>  (146) 
2015.0

>  <Active>  (146) 
1.0

>  <bits>  (146) 
<rdkit.DataStructs.cDataStructs.ExplicitBitVect object at 0x000002422F1E0580>

>  <Group>  (146) 
G2

$$$$

     RDKit          2D

 31 35  0  0  0  0  0  0  0  0999 V2000
    2.6491   -3.5623    0.0000 C   0  0  0  0  0  0  0  0  0  0  0  0
    1.5000   -2.5981    0.0000 C   0  0  0  0  0  0  0  0  0  0  0  0
    2.6491   -1.6339    0.0000 C   0  0  0  0  0  0  0  0  0  0  0  0
    0.7500   -1.2990    0.0000 C   0  0  0  0  0  0  0  0  0  0  0  0
    1.5000    0.0000    0.0000 C   0  0  0  0  0  0  0  0  0  0  0  0
    0.7500    1.2990    0.0000 C   0  0  0  0  0  0  0  0  0  0  0  0
    1.5000    2.5981    0.0000 O   0  0  0  0  0  0  0  0  0  0  0  0
    3.0000    2.5981    0.0000 C   0  0  0  0  0  0  0  0  0  0  0  0
    3.7500    3.8971    0.0000 C   0  0  0  0  0  0  0  0  0  0  0  0
    3.0000    5.1962    0.0000 O   0  0  0  0  0  0  0  0  0  0  0  0
    5.2500    3.8971    0.0000 C   0  0  0  0  0  0  0  0  0  0  0  0
    6.0000    5.1962    0.0000 O   0  0  0  0  0  0  0  0  0  0  0  0
   -0.7500    1.2990    0.0000 C   0  0  0  0  0  0  0  0  0  0  0  0
   -1.5000    0.0000    0.0000 C   0  0  0  0  0  0  0  0  0  0  0  0
   -0.7500   -1.2990    0.0000 C   0  0  0  0  0  0  0  0  0  0  0  0
   -1.5000   -2.5981    0.0000 C   0  0  0  0  0  0  0  0  0  0  0  0
   -3.0000   -2.5981    0.0000 O   0  0  0  0  0  0  0  0  0  0  0  0
   -0.7500   -3.8971    0.0000 C   0  0  0  0  0  0  0  0  0  0  0  0
    0.7500   -3.8971    0.0000 C   0  0  0  0  0  0  0  0  0  0  0  0
    1.2135   -5.3237    0.0000 N   0  0  0  0  0  0  0  0  0  0  0  0
    0.0000   -6.2054    0.0000 C   0  0  0  0  0  0  0  0  0  0  0  0
   -0.1568   -7.6972    0.0000 C   0  0  0  0  0  0  0  0  0  0  0  0
    1.0567   -8.5788    0.0000 C   0  0  0  0  0  0  0  0  0  0  0  0
    2.5485   -8.7356    0.0000 C   0  0  0  0  0  0  0  0  0  0  0  0
    1.6668   -9.9492    0.0000 C   0  0  0  0  0  0  0  0  0  0  0  0
   -1.5271   -8.3073    0.0000 C   0  0  0  0  0  0  0  0  0  0  0  0
   -1.6839   -9.7990    0.0000 C   0  0  0  0  0  0  0  0  0  0  0  0
   -1.8407  -11.2908    0.0000 N   0  0  0  0  0  0  0  0  0  0  0  0
   -2.7406   -7.4256    0.0000 C   0  0  0  0  0  0  0  0  0  0  0  0
   -2.5838   -5.9338    0.0000 C   0  0  0  0  0  0  0  0  0  0  0  0
   -1.2135   -5.3237    0.0000 C   0  0  0  0  0  0  0  0  0  0  0  0
  1  2  1  0
  2  3  1  0
  2  4  1  0
  4  5  2  0
  5  6  1  0
  6  7  1  0
  7  8  1  0
  8  9  1  0
  9 10  1  6
  9 11  1  0
 11 12  1  0
  6 13  2  0
 13 14  1  0
 14 15  2  0
 15 16  1  0
 16 17  2  0
 16 18  1  0
 18 19  2  0
 19 20  1  0
 20 21  1  0
 21 22  2  0
 22 23  1  0
 23 24  1  0
 24 25  1  0
 22 26  1  0
 26 27  1  0
 27 28  3  0
 26 29  2  0
 29 30  1  0
 30 31  2  0
 19  2  1  0
 31 21  1  0
 15  4  1  0
 31 18  1  0
 25 23  1  0
M  END
>  <Compound_ID>  (147) 
CHEMBL4110481

>  <Molecule Name>  (147) 
nan

>  <Molecular Weight>  (147) 
416.48

>  <AlogP>  (147) 
3.52

>  <Smiles>  (147) 
CC1(C)c2cc(OC[C@H](O)CO)ccc2C(=O)c2c1[nH]c1c(C3CC3)c(C#N)ccc21

>  <Standard Type>  (147) 
IC50

>  <Standard Relation>  (147) 
'='

>  <Standard Units>  (147) 
nM

>  <Standard Value>  (147) 
2.6

>  <Assay ChEMBL ID>  (147) 
CHEMBL3887074

>  <Assay Description>  (147) 
Inhibition Assay: ALK-inhibiting activity was measured by following an activity of inhibiting phosphorylation by biotinylated peptide (EGPWLEEEEEAYGWMDF). For the detection of phosphorylation of the biotinylated peptide, time-resolved fluorescence measurement was performed using an anti-phosphorylated tyrosine antibody labeled with europium cryptate and streptavidin conjugated to XL665, i.e., an allophycocyanin derivative.

>  <BAO Format ID>  (147) 
BAO_0000357

>  <BAO Label>  (147) 
single protein format

>  <Assay Organism>  (147) 
Homo sapiens

>  <Target ChEMBL ID>  (147) 
CHEMBL4247

>  <Target Name>  (147) 
ALK tyrosine kinase receptor

>  <Target Organism>  (147) 
Homo sapiens

>  <Target Type>  (147) 
SINGLE PROTEIN

>  <Document ChEMBL ID>  (147) 
CHEMBL3886150

>  <Source Description>  (147) 
BindingDB Database

>  <Document Journal>  (147) 
nan

>  <Document Year>  (147) 
2015.0

>  <Active>  (147) 
1.0

>  <bits>  (147) 
<rdkit.DataStructs.cDataStructs.ExplicitBitVect object at 0x000002422F1E3610>

>  <Group>  (147) 
G2

$$$$

     RDKit          2D

 30 33  0  0  0  0  0  0  0  0999 V2000
    8.2500   -3.8971    0.0000 C   0  0  0  0  0  0  0  0  0  0  0  0
    7.5000   -2.5981    0.0000 C   0  0  0  0  0  0  0  0  0  0  0  0
    6.0000   -2.5981    0.0000 N   0  0  0  0  0  0  0  0  0  0  0  0
    5.2500   -3.8971    0.0000 C   0  0  0  0  0  0  0  0  0  0  0  0
    6.0000   -5.1962    0.0000 C   0  0  0  0  0  0  0  0  0  0  0  0
    5.2500   -1.2990    0.0000 C   0  0  0  0  0  0  0  0  0  0  0  0
    3.7500   -1.2990    0.0000 C   0  0  0  0  0  0  0  0  0  0  0  0
    3.0000    0.0000    0.0000 O   0  0  0  0  0  0  0  0  0  0  0  0
    1.5000    0.0000    0.0000 C   0  0  0  0  0  0  0  0  0  0  0  0
    0.7500   -1.2990    0.0000 C   0  0  0  0  0  0  0  0  0  0  0  0
   -0.7500   -1.2990    0.0000 C   0  0  0  0  0  0  0  0  0  0  0  0
   -1.5000    0.0000    0.0000 C   0  0  0  0  0  0  0  0  0  0  0  0
   -0.7500    1.2990    0.0000 C   0  0  0  0  0  0  0  0  0  0  0  0
    0.7500    1.2990    0.0000 C   0  0  0  0  0  0  0  0  0  0  0  0
   -1.5000    2.5981    0.0000 C   0  0  0  0  0  0  0  0  0  0  0  0
   -1.7605    4.0753    0.0000 C   0  0  0  0  0  0  0  0  0  0  0  0
   -0.0905    3.1111    0.0000 C   0  0  0  0  0  0  0  0  0  0  0  0
   -3.0000    2.5981    0.0000 C   0  0  0  0  0  0  0  0  0  0  0  0
   -4.0037    3.7128    0.0000 N   0  0  0  0  0  0  0  0  0  0  0  0
   -5.3740    3.1027    0.0000 C   0  0  0  0  0  0  0  0  0  0  0  0
   -6.7443    3.7128    0.0000 C   0  0  0  0  0  0  0  0  0  0  0  0
   -7.9579    2.8311    0.0000 C   0  0  0  0  0  0  0  0  0  0  0  0
   -9.3282    3.4412    0.0000 C   0  0  0  0  0  0  0  0  0  0  0  0
  -10.6985    4.0513    0.0000 N   0  0  0  0  0  0  0  0  0  0  0  0
   -7.8011    1.3393    0.0000 C   0  0  0  0  0  0  0  0  0  0  0  0
   -6.4307    0.7292    0.0000 C   0  0  0  0  0  0  0  0  0  0  0  0
   -5.2172    1.6109    0.0000 C   0  0  0  0  0  0  0  0  0  0  0  0
   -3.7500    1.2990    0.0000 C   0  0  0  0  0  0  0  0  0  0  0  0
   -3.0000    0.0000    0.0000 C   0  0  0  0  0  0  0  0  0  0  0  0
   -3.7500   -1.2990    0.0000 O   0  0  0  0  0  0  0  0  0  0  0  0
  1  2  1  0
  2  3  1  0
  3  4  1  0
  4  5  1  0
  3  6  1  0
  6  7  1  0
  7  8  1  0
  8  9  1  0
  9 10  2  0
 10 11  1  0
 11 12  2  0
 12 13  1  0
 13 14  2  0
 13 15  1  0
 15 16  1  0
 15 17  1  0
 15 18  1  0
 18 19  1  0
 19 20  1  0
 20 21  2  0
 21 22  1  0
 22 23  1  0
 23 24  3  0
 22 25  2  0
 25 26  1  0
 26 27  2  0
 27 28  1  0
 28 29  1  0
 29 30  2  0
 14  9  1  0
 28 18  2  0
 29 12  1  0
 27 20  1  0
M  END
>  <Compound_ID>  (148) 
CHEMBL1779192

>  <Molecule Name>  (148) 
nan

>  <Molecular Weight>  (148) 
401.51

>  <AlogP>  (148) 
4.63

>  <Smiles>  (148) 
CCN(CC)CCOc1ccc2c(c1)C(C)(C)c1[nH]c3cc(C#N)ccc3c1C2=O

>  <Standard Type>  (148) 
IC50

>  <Standard Relation>  (148) 
'='

>  <Standard Units>  (148) 
nM

>  <Standard Value>  (148) 
7.6

>  <Assay ChEMBL ID>  (148) 
CHEMBL4378233

>  <Assay Description>  (148) 
Inhibition of ALK (unknown origin)

>  <BAO Format ID>  (148) 
BAO_0000357

>  <BAO Label>  (148) 
single protein format

>  <Assay Organism>  (148) 
Homo sapiens

>  <Target ChEMBL ID>  (148) 
CHEMBL4247

>  <Target Name>  (148) 
ALK tyrosine kinase receptor

>  <Target Organism>  (148) 
Homo sapiens

>  <Target Type>  (148) 
SINGLE PROTEIN

>  <Document ChEMBL ID>  (148) 
CHEMBL4376817

>  <Source Description>  (148) 
Scientific Literature

>  <Document Journal>  (148) 
J Med Chem

>  <Document Year>  (148) 
2019.0

>  <Active>  (148) 
1.0

>  <bits>  (148) 
<rdkit.DataStructs.cDataStructs.ExplicitBitVect object at 0x000002422F1E0740>

>  <Group>  (148) 
G2

$$$$

     RDKit          2D

 32 37  0  0  0  0  0  0  0  0999 V2000
    2.6491   -3.5623    0.0000 C   0  0  0  0  0  0  0  0  0  0  0  0
    1.5000   -2.5981    0.0000 C   0  0  0  0  0  0  0  0  0  0  0  0
    2.6491   -1.6339    0.0000 C   0  0  0  0  0  0  0  0  0  0  0  0
    0.7500   -1.2990    0.0000 C   0  0  0  0  0  0  0  0  0  0  0  0
    1.5000    0.0000    0.0000 C   0  0  0  0  0  0  0  0  0  0  0  0
    0.7500    1.2990    0.0000 C   0  0  0  0  0  0  0  0  0  0  0  0
    1.5000    2.5981    0.0000 N   0  0  0  0  0  0  0  0  0  0  0  0
    3.0000    2.5981    0.0000 C   0  0  0  0  0  0  0  0  0  0  0  0
    3.7500    3.8971    0.0000 C   0  0  0  0  0  0  0  0  0  0  0  0
    3.0000    5.1962    0.0000 N   0  0  0  0  0  0  0  0  0  0  0  0
    3.7500    6.4952    0.0000 C   0  0  0  0  0  0  0  0  0  0  0  0
    5.1989    6.8834    0.0000 C   0  0  0  0  0  0  0  0  0  0  0  0
    4.8107    8.3323    0.0000 O   0  0  0  0  0  0  0  0  0  0  0  0
    3.3618    7.9441    0.0000 C   0  0  0  0  0  0  0  0  0  0  0  0
    1.5000    5.1962    0.0000 C   0  0  0  0  0  0  0  0  0  0  0  0
    0.7500    3.8971    0.0000 C   0  0  0  0  0  0  0  0  0  0  0  0
   -0.7500    1.2990    0.0000 C   0  0  0  0  0  0  0  0  0  0  0  0
   -1.5000    0.0000    0.0000 C   0  0  0  0  0  0  0  0  0  0  0  0
   -0.7500   -1.2990    0.0000 C   0  0  0  0  0  0  0  0  0  0  0  0
   -1.5000   -2.5981    0.0000 C   0  0  0  0  0  0  0  0  0  0  0  0
   -3.0000   -2.5981    0.0000 O   0  0  0  0  0  0  0  0  0  0  0  0
   -0.7500   -3.8971    0.0000 C   0  0  0  0  0  0  0  0  0  0  0  0
    0.7500   -3.8971    0.0000 C   0  0  0  0  0  0  0  0  0  0  0  0
    1.2135   -5.3237    0.0000 N   0  0  0  0  0  0  0  0  0  0  0  0
    0.0000   -6.2054    0.0000 C   0  0  0  0  0  0  0  0  0  0  0  0
   -0.1568   -7.6972    0.0000 C   0  0  0  0  0  0  0  0  0  0  0  0
   -1.5271   -8.3073    0.0000 C   0  0  0  0  0  0  0  0  0  0  0  0
   -1.6839   -9.7990    0.0000 C   0  0  0  0  0  0  0  0  0  0  0  0
   -1.8407  -11.2908    0.0000 N   0  0  0  0  0  0  0  0  0  0  0  0
   -2.7406   -7.4256    0.0000 C   0  0  0  0  0  0  0  0  0  0  0  0
   -2.5838   -5.9338    0.0000 C   0  0  0  0  0  0  0  0  0  0  0  0
   -1.2135   -5.3237    0.0000 C   0  0  0  0  0  0  0  0  0  0  0  0
  1  2  1  0
  2  3  1  0
  2  4  1  0
  4  5  2  0
  5  6  1  0
  6  7  1  0
  7  8  1  0
  8  9  1  0
  9 10  1  0
 10 11  1  0
 11 12  1  0
 12 13  1  0
 13 14  1  0
 10 15  1  0
 15 16  1  0
  6 17  2  0
 17 18  1  0
 18 19  2  0
 19 20  1  0
 20 21  2  0
 20 22  1  0
 22 23  2  0
 23 24  1  0
 24 25  1  0
 25 26  2  0
 26 27  1  0
 27 28  1  0
 28 29  3  0
 27 30  2  0
 30 31  1  0
 31 32  2  0
 23  2  1  0
 32 25  1  0
 19  4  1  0
 32 22  1  0
 16  7  1  0
 14 11  1  0
M  END
>  <Compound_ID>  (149) 
CHEMBL1779201

>  <Molecule Name>  (149) 
nan

>  <Molecular Weight>  (149) 
426.52

>  <AlogP>  (149) 
3.43

>  <Smiles>  (149) 
CC1(C)c2cc(N3CCN(C4COC4)CC3)ccc2C(=O)c2c1[nH]c1cc(C#N)ccc21

>  <Standard Type>  (149) 
IC50

>  <Standard Relation>  (149) 
'='

>  <Standard Units>  (149) 
nM

>  <Standard Value>  (149) 
27.0

>  <Assay ChEMBL ID>  (149) 
CHEMBL1828297

>  <Assay Description>  (149) 
Inhibition of ALK activity by TR-FRET assay

>  <BAO Format ID>  (149) 
BAO_0000357

>  <BAO Label>  (149) 
single protein format

>  <Assay Organism>  (149) 
None

>  <Target ChEMBL ID>  (149) 
CHEMBL4247

>  <Target Name>  (149) 
ALK tyrosine kinase receptor

>  <Target Organism>  (149) 
Homo sapiens

>  <Target Type>  (149) 
SINGLE PROTEIN

>  <Document ChEMBL ID>  (149) 
CHEMBL1821705

>  <Source Description>  (149) 
Scientific Literature

>  <Document Journal>  (149) 
J Med Chem

>  <Document Year>  (149) 
2011.0

>  <Active>  (149) 
1.0

>  <bits>  (149) 
<rdkit.DataStructs.cDataStructs.ExplicitBitVect object at 0x000002422F1E20A0>

>  <Group>  (149) 
G2

$$$$

     RDKit          2D

 41 45  0  0  0  0  0  0  0  0999 V2000
    3.7500   -1.2990    0.0000 C   0  0  0  0  0  0  0  0  0  0  0  0
    3.0000    0.0000    0.0000 O   0  0  0  0  0  0  0  0  0  0  0  0
    1.5000    0.0000    0.0000 C   0  0  0  0  0  0  0  0  0  0  0  0
    0.7500   -1.2990    0.0000 C   0  0  0  0  0  0  0  0  0  0  0  0
   -0.7500   -1.2990    0.0000 C   0  0  0  0  0  0  0  0  0  0  0  0
   -1.5000   -2.5981    0.0000 N   0  0  0  0  0  0  0  0  0  0  0  0
   -0.8899   -3.9684    0.0000 C   0  0  0  0  0  0  0  0  0  0  0  0
   -2.0046   -4.9721    0.0000 C   0  0  0  0  0  0  0  0  0  0  0  0
   -3.3037   -4.2221    0.0000 C   0  0  0  0  0  0  0  0  0  0  0  0
   -2.9918   -2.7549    0.0000 C   0  0  0  0  0  0  0  0  0  0  0  0
   -3.9955   -1.6402    0.0000 C   0  0  0  0  0  0  0  0  0  0  0  0
   -3.5320   -0.2136    0.0000 O   0  0  0  0  0  0  0  0  0  0  0  0
   -5.4627   -1.9520    0.0000 N   0  0  0  0  0  0  0  0  0  0  0  0
   -6.4664   -0.8373    0.0000 C   0  0  0  0  0  0  0  0  0  0  0  0
   -7.9336   -1.1492    0.0000 C   0  0  0  0  0  0  0  0  0  0  0  0
   -8.3971   -2.5758    0.0000 S   0  0  0  0  0  0  0  0  0  0  0  0
   -7.3934   -3.6905    0.0000 C   0  0  0  0  0  0  0  0  0  0  0  0
   -5.9262   -3.3786    0.0000 C   0  0  0  0  0  0  0  0  0  0  0  0
   -1.5000    0.0000    0.0000 C   0  0  0  0  0  0  0  0  0  0  0  0
   -0.7500    1.2990    0.0000 C   0  0  0  0  0  0  0  0  0  0  0  0
    0.7500    1.2990    0.0000 C   0  0  0  0  0  0  0  0  0  0  0  0
    1.5000    2.5981    0.0000 N   0  0  0  0  0  0  0  0  0  0  0  0
    3.0000    2.5981    0.0000 C   0  0  0  0  0  0  0  0  0  0  0  0
    3.7500    1.2990    0.0000 N   0  0  0  0  0  0  0  0  0  0  0  0
    5.2500    1.2990    0.0000 C   0  0  0  0  0  0  0  0  0  0  0  0
    6.0000    2.5981    0.0000 C   0  0  0  0  0  0  0  0  0  0  0  0
    7.5000    2.5981    0.0000 Cl  0  0  0  0  0  0  0  0  0  0  0  0
    5.2500    3.8971    0.0000 C   0  0  0  0  0  0  0  0  0  0  0  0
    6.0000    5.1962    0.0000 N   0  0  0  0  0  0  0  0  0  0  0  0
    5.2500    6.4952    0.0000 C   0  0  0  0  0  0  0  0  0  0  0  0
    6.0000    7.7942    0.0000 C   0  0  0  0  0  0  0  0  0  0  0  0
    5.2500    9.0933    0.0000 C   0  0  0  0  0  0  0  0  0  0  0  0
    3.7500    9.0933    0.0000 C   0  0  0  0  0  0  0  0  0  0  0  0
    3.0000    7.7942    0.0000 C   0  0  0  0  0  0  0  0  0  0  0  0
    3.7500    6.4952    0.0000 C   0  0  0  0  0  0  0  0  0  0  0  0
    3.0000    5.1962    0.0000 N   0  0  0  0  0  0  0  0  0  0  0  0
    1.5000    5.1962    0.0000 S   0  0  0  0  0  0  0  0  0  0  0  0
    0.0000    5.1962    0.0000 C   0  0  0  0  0  0  0  0  0  0  0  0
    1.5000    6.6962    0.0000 O   0  0  0  0  0  0  0  0  0  0  0  0
    1.5000    3.6962    0.0000 O   0  0  0  0  0  0  0  0  0  0  0  0
    3.7500    3.8971    0.0000 N   0  0  0  0  0  0  0  0  0  0  0  0
  1  2  1  0
  2  3  1  0
  3  4  2  0
  4  5  1  0
  5  6  1  0
  6  7  1  0
  7  8  2  0
  8  9  1  0
  9 10  2  0
 10 11  1  0
 11 12  2  0
 11 13  1  0
 13 14  1  0
 14 15  1  0
 15 16  1  0
 16 17  1  0
 17 18  1  0
  5 19  2  0
 19 20  1  0
 20 21  2  0
 21 22  1  0
 22 23  1  0
 23 24  2  0
 24 25  1  0
 25 26  2  0
 26 27  1  0
 26 28  1  0
 28 29  1  0
 29 30  1  0
 30 31  2  0
 31 32  1  0
 32 33  2  0
 33 34  1  0
 34 35  2  0
 35 36  1  0
 36 37  1  0
 37 38  1  0
 37 39  2  0
 37 40  2  0
 28 41  2  0
 21  3  1  0
 41 23  1  0
 10  6  1  0
 18 13  1  0
 35 30  1  0
M  END
>  <Compound_ID>  (150) 
CHEMBL4779513

>  <Molecule Name>  (150) 
nan

>  <Molecular Weight>  (150) 
614.15

>  <AlogP>  (150) 
4.98

>  <Smiles>  (150) 
COc1cc(-n2cccc2C(=O)N2CCSCC2)ccc1Nc1ncc(Cl)c(Nc2ccccc2NS(C)(=O)=O)n1

>  <Standard Type>  (150) 
IC50

>  <Standard Relation>  (150) 
'='

>  <Standard Units>  (150) 
nM

>  <Standard Value>  (150) 
4.5

>  <Assay ChEMBL ID>  (150) 
CHEMBL4672519

>  <Assay Description>  (150) 
Inhibition of wild-type ALK (unknown origin) incubated for 1 hr

>  <BAO Format ID>  (150) 
BAO_0000357

>  <BAO Label>  (150) 
single protein format

>  <Assay Organism>  (150) 
Homo sapiens

>  <Target ChEMBL ID>  (150) 
CHEMBL4247

>  <Target Name>  (150) 
ALK tyrosine kinase receptor

>  <Target Organism>  (150) 
Homo sapiens

>  <Target Type>  (150) 
SINGLE PROTEIN

>  <Document ChEMBL ID>  (150) 
CHEMBL4665881

>  <Source Description>  (150) 
Scientific Literature

>  <Document Journal>  (150) 
Bioorg Med Chem

>  <Document Year>  (150) 
2020.0

>  <Active>  (150) 
1.0

>  <bits>  (150) 
<rdkit.DataStructs.cDataStructs.ExplicitBitVect object at 0x000002422F1E17E0>

>  <Group>  (150) 
G2

$$$$

     RDKit          2D

 39 43  0  0  0  0  0  0  0  0999 V2000
    3.7500   -1.2990    0.0000 C   0  0  0  0  0  0  0  0  0  0  0  0
    3.0000    0.0000    0.0000 O   0  0  0  0  0  0  0  0  0  0  0  0
    1.5000    0.0000    0.0000 C   0  0  0  0  0  0  0  0  0  0  0  0
    0.7500   -1.2990    0.0000 C   0  0  0  0  0  0  0  0  0  0  0  0
   -0.7500   -1.2990    0.0000 C   0  0  0  0  0  0  0  0  0  0  0  0
   -1.5000   -2.5981    0.0000 N   0  0  0  0  0  0  0  0  0  0  0  0
   -3.0000   -2.5981    0.0000 C   0  0  0  0  0  0  0  0  0  0  0  0
   -3.7500   -3.8971    0.0000 C   0  0  0  0  0  0  0  0  0  0  0  0
   -3.0000   -5.1962    0.0000 C   0  0  0  0  0  0  0  0  0  0  0  0
   -3.7500   -6.4952    0.0000 N   0  0  0  0  0  0  0  0  0  0  0  0
   -5.2500   -6.4952    0.0000 C   0  0  0  0  0  0  0  0  0  0  0  0
   -6.0000   -7.7942    0.0000 C   0  0  0  0  0  0  0  0  0  0  0  0
   -5.2500   -9.0933    0.0000 N   0  0  0  0  0  0  0  0  0  0  0  0
   -6.0000  -10.3923    0.0000 C   0  0  0  0  0  0  0  0  0  0  0  0
   -3.7500   -9.0933    0.0000 C   0  0  0  0  0  0  0  0  0  0  0  0
   -3.0000   -7.7942    0.0000 C   0  0  0  0  0  0  0  0  0  0  0  0
   -1.5000   -5.1962    0.0000 C   0  0  0  0  0  0  0  0  0  0  0  0
   -0.7500   -3.8971    0.0000 C   0  0  0  0  0  0  0  0  0  0  0  0
   -1.5000    0.0000    0.0000 C   0  0  0  0  0  0  0  0  0  0  0  0
   -0.7500    1.2990    0.0000 C   0  0  0  0  0  0  0  0  0  0  0  0
    0.7500    1.2990    0.0000 C   0  0  0  0  0  0  0  0  0  0  0  0
    1.5000    2.5981    0.0000 N   0  0  0  0  0  0  0  0  0  0  0  0
    3.0000    2.5981    0.0000 C   0  0  0  0  0  0  0  0  0  0  0  0
    3.7500    1.2990    0.0000 N   0  0  0  0  0  0  0  0  0  0  0  0
    5.2500    1.2990    0.0000 C   0  0  0  0  0  0  0  0  0  0  0  0
    6.0000    2.5981    0.0000 C   0  0  0  0  0  0  0  0  0  0  0  0
    7.5000    2.5981    0.0000 Cl  0  0  0  0  0  0  0  0  0  0  0  0
    5.2500    3.8971    0.0000 C   0  0  0  0  0  0  0  0  0  0  0  0
    6.0000    5.1962    0.0000 N   0  0  0  0  0  0  0  0  0  0  0  0
    5.2500    6.4952    0.0000 C   0  0  0  0  0  0  0  0  0  0  0  0
    3.7500    6.4952    0.0000 C   0  0  0  0  0  0  0  0  0  0  0  0
    3.0000    7.7942    0.0000 C   0  0  0  0  0  0  0  0  0  0  0  0
    3.7500    9.0933    0.0000 C   0  0  0  0  0  0  0  0  0  0  0  0
    5.2500    9.0933    0.0000 C   0  0  0  0  0  0  0  0  0  0  0  0
    6.0000    7.7942    0.0000 C   0  0  0  0  0  0  0  0  0  0  0  0
    7.5000    7.7942    0.0000 C   0  0  0  0  0  0  0  0  0  0  0  0
    8.2500    9.0933    0.0000 N   0  0  0  0  0  0  0  0  0  0  0  0
    8.2500    6.4952    0.0000 O   0  0  0  0  0  0  0  0  0  0  0  0
    3.7500    3.8971    0.0000 N   0  0  0  0  0  0  0  0  0  0  0  0
  1  2  1  0
  2  3  1  0
  3  4  2  0
  4  5  1  0
  5  6  1  0
  6  7  1  0
  7  8  1  0
  8  9  1  0
  9 10  1  0
 10 11  1  0
 11 12  1  0
 12 13  1  0
 13 14  1  0
 13 15  1  0
 15 16  1  0
  9 17  1  0
 17 18  1  0
  5 19  2  0
 19 20  1  0
 20 21  2  0
 21 22  1  0
 22 23  1  0
 23 24  2  0
 24 25  1  0
 25 26  2  0
 26 27  1  0
 26 28  1  0
 28 29  1  0
 29 30  1  0
 30 31  2  0
 31 32  1  0
 32 33  2  0
 33 34  1  0
 34 35  2  0
 35 36  1  0
 36 37  1  0
 36 38  2  0
 28 39  2  0
 21  3  1  0
 39 23  1  0
 18  6  1  0
 35 30  1  0
 16 10  1  0
M  END
>  <Compound_ID>  (151) 
CHEMBL3824246

>  <Molecule Name>  (151) 
nan

>  <Molecular Weight>  (151) 
551.1

>  <AlogP>  (151) 
3.94

>  <Smiles>  (151) 
COc1cc(N2CCC(N3CCN(C)CC3)CC2)ccc1Nc1ncc(Cl)c(Nc2ccccc2C(N)=O)n1

>  <Standard Type>  (151) 
IC50

>  <Standard Relation>  (151) 
'='

>  <Standard Units>  (151) 
nM

>  <Standard Value>  (151) 
0.8

>  <Assay ChEMBL ID>  (151) 
CHEMBL3824709

>  <Assay Description>  (151) 
Inhibition of human ALK using poly[Glu:Tyr] (4:1) as substrate and [gamma-33P]ATP measured after 1 hr

>  <BAO Format ID>  (151) 
BAO_0000357

>  <BAO Label>  (151) 
single protein format

>  <Assay Organism>  (151) 
Homo sapiens

>  <Target ChEMBL ID>  (151) 
CHEMBL4247

>  <Target Name>  (151) 
ALK tyrosine kinase receptor

>  <Target Organism>  (151) 
Homo sapiens

>  <Target Type>  (151) 
SINGLE PROTEIN

>  <Document ChEMBL ID>  (151) 
CHEMBL3822358

>  <Source Description>  (151) 
Scientific Literature

>  <Document Journal>  (151) 
J Med Chem

>  <Document Year>  (151) 
2016.0

>  <Active>  (151) 
1.0

>  <bits>  (151) 
<rdkit.DataStructs.cDataStructs.ExplicitBitVect object at 0x000002422F1E3840>

>  <Group>  (151) 
G2

$$$$

     RDKit          2D

 39 43  0  0  0  0  0  0  0  0999 V2000
    3.0000    0.0000    0.0000 C   0  0  0  0  0  0  0  0  0  0  0  0
    1.5000    0.0000    0.0000 C   0  0  0  0  0  0  0  0  0  0  0  0
    0.7500   -1.2990    0.0000 C   0  0  0  0  0  0  0  0  0  0  0  0
   -0.7500   -1.2990    0.0000 C   0  0  0  0  0  0  0  0  0  0  0  0
   -1.5000   -2.5981    0.0000 N   0  0  0  0  0  0  0  0  0  0  0  0
   -3.0000   -2.5981    0.0000 C   0  0  0  0  0  0  0  0  0  0  0  0
   -3.7500   -1.2990    0.0000 N   0  0  0  0  0  0  0  0  0  0  0  0
   -5.2500   -1.2990    0.0000 C   0  0  0  0  0  0  0  0  0  0  0  0
   -6.0000   -2.5981    0.0000 C   0  0  0  0  0  0  0  0  0  0  0  0
   -7.5000   -2.5981    0.0000 Cl  0  0  0  0  0  0  0  0  0  0  0  0
   -5.2500   -3.8971    0.0000 C   0  0  0  0  0  0  0  0  0  0  0  0
   -6.0000   -5.1962    0.0000 N   0  0  0  0  0  0  0  0  0  0  0  0
   -5.2500   -6.4952    0.0000 C   0  0  0  0  0  0  0  0  0  0  0  0
   -3.7582   -6.6520    0.0000 C   0  0  0  0  0  0  0  0  0  0  0  0
   -3.4463   -8.1192    0.0000 N   0  0  0  0  0  0  0  0  0  0  0  0
   -2.0760   -8.7293    0.0000 C   0  0  0  0  0  0  0  0  0  0  0  0
   -4.7454   -8.8692    0.0000 N   0  0  0  0  0  0  0  0  0  0  0  0
   -5.8601   -7.8655    0.0000 C   0  0  0  0  0  0  0  0  0  0  0  0
   -7.3273   -8.1774    0.0000 S   0  0  0  0  0  0  0  0  0  0  0  0
   -7.6392   -6.7102    0.0000 O   0  0  0  0  0  0  0  0  0  0  0  0
   -7.0155   -9.6446    0.0000 O   0  0  0  0  0  0  0  0  0  0  0  0
   -8.7945   -8.4892    0.0000 C   0  0  0  0  0  0  0  0  0  0  0  0
   -9.7982   -7.3745    0.0000 C   0  0  0  0  0  0  0  0  0  0  0  0
   -9.2581   -9.9158    0.0000 C   0  0  0  0  0  0  0  0  0  0  0  0
   -3.7500   -3.8971    0.0000 N   0  0  0  0  0  0  0  0  0  0  0  0
   -1.5000    0.0000    0.0000 C   0  0  0  0  0  0  0  0  0  0  0  0
   -3.0000    0.0000    0.0000 O   0  0  0  0  0  0  0  0  0  0  0  0
   -3.7500    1.2990    0.0000 C   0  0  0  0  0  0  0  0  0  0  0  0
   -5.0490    2.0490    0.0000 C   0  0  0  0  0  0  0  0  0  0  0  0
   -3.7500    2.7990    0.0000 C   0  0  0  0  0  0  0  0  0  0  0  0
   -0.7500    1.2990    0.0000 C   0  0  0  0  0  0  0  0  0  0  0  0
    0.7500    1.2990    0.0000 C   0  0  0  0  0  0  0  0  0  0  0  0
    1.5000    2.5981    0.0000 C   0  0  0  0  0  0  0  0  0  0  0  0
    3.0000    2.5981    0.0000 C   0  0  0  0  0  0  0  0  0  0  0  0
    3.7500    3.8971    0.0000 C   0  0  0  0  0  0  0  0  0  0  0  0
    3.0000    5.1962    0.0000 N   0  0  0  0  0  0  0  0  0  0  0  0
    3.7500    6.4952    0.0000 C   0  0  0  0  0  0  0  0  0  0  0  0
    1.5000    5.1962    0.0000 C   0  0  0  0  0  0  0  0  0  0  0  0
    0.7500    3.8971    0.0000 C   0  0  0  0  0  0  0  0  0  0  0  0
  1  2  1  0
  2  3  2  0
  3  4  1  0
  4  5  1  0
  5  6  1  0
  6  7  2  0
  7  8  1  0
  8  9  2  0
  9 10  1  0
  9 11  1  0
 11 12  1  0
 12 13  1  0
 13 14  2  0
 14 15  1  0
 15 16  1  0
 15 17  1  0
 17 18  2  0
 18 19  1  0
 19 20  2  0
 19 21  2  0
 19 22  1  0
 22 23  1  0
 22 24  1  0
 11 25  2  0
  4 26  2  0
 26 27  1  0
 27 28  1  0
 28 29  1  0
 29 30  1  0
 26 31  1  0
 31 32  2  0
 32 33  1  0
 33 34  1  0
 34 35  1  0
 35 36  1  0
 36 37  1  0
 36 38  1  0
 38 39  1  0
 32  2  1  0
 39 33  1  0
 25  6  1  0
 30 28  1  0
 18 13  1  0
M  END
>  <Compound_ID>  (152) 
CHEMBL3604634

>  <Molecule Name>  (152) 
nan

>  <Molecular Weight>  (152) 
574.15

>  <AlogP>  (152) 
5.19

>  <Smiles>  (152) 
Cc1cc(Nc2ncc(Cl)c(Nc3cn(C)nc3S(=O)(=O)C(C)C)n2)c(OC2CC2)cc1C1CCN(C)CC1

>  <Standard Type>  (152) 
IC50

>  <Standard Relation>  (152) 
'='

>  <Standard Units>  (152) 
nM

>  <Standard Value>  (152) 
1.0

>  <Assay ChEMBL ID>  (152) 
CHEMBL3791910

>  <Assay Description>  (152) 
Inhibition of recombinant human wild type ALK using tyrosine kinase substrate-biotin after 30 mins by HTRF assay

>  <BAO Format ID>  (152) 
BAO_0000357

>  <BAO Label>  (152) 
single protein format

>  <Assay Organism>  (152) 
Homo sapiens

>  <Target ChEMBL ID>  (152) 
CHEMBL4247

>  <Target Name>  (152) 
ALK tyrosine kinase receptor

>  <Target Organism>  (152) 
Homo sapiens

>  <Target Type>  (152) 
SINGLE PROTEIN

>  <Document ChEMBL ID>  (152) 
CHEMBL3785058

>  <Source Description>  (152) 
Scientific Literature

>  <Document Journal>  (152) 
Bioorg Med Chem Lett

>  <Document Year>  (152) 
2016.0

>  <Active>  (152) 
1.0

>  <bits>  (152) 
<rdkit.DataStructs.cDataStructs.ExplicitBitVect object at 0x000002422F1E2730>

>  <Group>  (152) 
G2

$$$$

     RDKit          2D

 32 36  0  0  0  0  0  0  0  0999 V2000
    6.0000  -10.3923    0.0000 C   0  0  0  0  0  0  0  0  0  0  0  0
    5.2500   -9.0933    0.0000 N   0  0  0  0  0  0  0  0  0  0  0  0
    3.7500   -9.0933    0.0000 C   0  0  0  0  0  0  0  0  0  0  0  0
    3.0000   -7.7942    0.0000 C   0  0  0  0  0  0  0  0  0  0  0  0
    3.7500   -6.4952    0.0000 N   0  0  0  0  0  0  0  0  0  0  0  0
    3.0000   -5.1962    0.0000 C   0  0  0  0  0  0  0  0  0  0  0  0
    3.7500   -3.8971    0.0000 C   0  0  0  0  0  0  0  0  0  0  0  0
    3.0000   -2.5981    0.0000 C   0  0  0  0  0  0  0  0  0  0  0  0
    1.5000   -2.5981    0.0000 C   0  0  0  0  0  0  0  0  0  0  0  0
    0.7500   -1.2990    0.0000 C   0  0  0  0  0  0  0  0  0  0  0  0
    1.5000    0.0000    0.0000 C   0  0  0  0  0  0  0  0  0  0  0  0
    0.7500    1.2990    0.0000 N   0  0  0  0  0  0  0  0  0  0  0  0
   -0.7500    1.2990    0.0000 C   0  0  0  0  0  0  0  0  0  0  0  0
   -1.5000    0.0000    0.0000 C   0  0  0  0  0  0  0  0  0  0  0  0
   -0.7500   -1.2990    0.0000 C   0  0  0  0  0  0  0  0  0  0  0  0
   -3.0000    0.0000    0.0000 N   0  0  0  0  0  0  0  0  0  0  0  0
   -3.7500   -1.2990    0.0000 C   0  0  0  0  0  0  0  0  0  0  0  0
   -5.2500   -1.2990    0.0000 C   0  0  0  0  0  0  0  0  0  0  0  0
   -6.0000    0.0000    0.0000 C   0  0  0  0  0  0  0  0  0  0  0  0
   -7.5000    0.0000    0.0000 C   0  0  0  0  0  0  0  0  0  0  0  0
   -8.2500    1.2990    0.0000 F   0  0  0  0  0  0  0  0  0  0  0  0
   -8.2500   -1.2990    0.0000 C   0  0  0  0  0  0  0  0  0  0  0  0
   -7.5000   -2.5981    0.0000 C   0  0  0  0  0  0  0  0  0  0  0  0
   -6.0000   -2.5981    0.0000 C   0  0  0  0  0  0  0  0  0  0  0  0
   -5.2500   -3.8971    0.0000 F   0  0  0  0  0  0  0  0  0  0  0  0
   -3.7500    1.2990    0.0000 C   0  0  0  0  0  0  0  0  0  0  0  0
   -3.0000    2.5981    0.0000 C   0  0  0  0  0  0  0  0  0  0  0  0
   -1.5000    2.5981    0.0000 N   0  0  0  0  0  0  0  0  0  0  0  0
    0.7500   -3.8971    0.0000 C   0  0  0  0  0  0  0  0  0  0  0  0
    1.5000   -5.1962    0.0000 N   0  0  0  0  0  0  0  0  0  0  0  0
    5.2500   -6.4952    0.0000 C   0  0  0  0  0  0  0  0  0  0  0  0
    6.0000   -7.7942    0.0000 C   0  0  0  0  0  0  0  0  0  0  0  0
  1  2  1  0
  2  3  1  0
  3  4  1  0
  4  5  1  0
  5  6  1  0
  6  7  2  0
  7  8  1  0
  8  9  2  0
  9 10  1  0
 10 11  2  0
 11 12  1  0
 12 13  2  0
 13 14  1  0
 14 15  2  0
 14 16  1  0
 16 17  1  0
 17 18  1  0
 18 19  2  0
 19 20  1  0
 20 21  1  0
 20 22  2  0
 22 23  1  0
 23 24  2  0
 24 25  1  0
 16 26  1  0
 26 27  1  0
 27 28  1  0
  9 29  1  0
 29 30  2  0
  5 31  1  0
 31 32  1  0
 32  2  1  0
 30  6  1  0
 15 10  1  0
 24 18  1  0
 28 13  1  0
M  END
>  <Compound_ID>  (153) 
CHEMBL1165499

>  <Molecule Name>  (153) 
nan

>  <Molecular Weight>  (153) 
436.51

>  <AlogP>  (153) 
3.61

>  <Smiles>  (153) 
CN1CCN(c2ccc(-c3cnc4c(c3)N(Cc3cc(F)ccc3F)CCN4)cn2)CC1

>  <Standard Type>  (153) 
IC50

>  <Standard Relation>  (153) 
'='

>  <Standard Units>  (153) 
nM

>  <Standard Value>  (153) 
33.0

>  <Assay ChEMBL ID>  (153) 
CHEMBL1168570

>  <Assay Description>  (153) 
Inhibition of ALK by time-resolved fluorescence assay

>  <BAO Format ID>  (153) 
BAO_0000357

>  <BAO Label>  (153) 
single protein format

>  <Assay Organism>  (153) 
None

>  <Target ChEMBL ID>  (153) 
CHEMBL4247

>  <Target Name>  (153) 
ALK tyrosine kinase receptor

>  <Target Organism>  (153) 
Homo sapiens

>  <Target Type>  (153) 
SINGLE PROTEIN

>  <Document ChEMBL ID>  (153) 
CHEMBL1165965

>  <Source Description>  (153) 
Scientific Literature

>  <Document Journal>  (153) 
Bioorg Med Chem

>  <Document Year>  (153) 
2010.0

>  <Active>  (153) 
1.0

>  <bits>  (153) 
<rdkit.DataStructs.cDataStructs.ExplicitBitVect object at 0x000002422F1E1BD0>

>  <Group>  (153) 
G2

$$$$

     RDKit          2D

 40 44  0  0  0  0  0  0  0  0999 V2000
  -10.5759   -3.0359    0.0000 C   0  0  0  0  0  0  0  0  0  0  0  0
   -9.4612   -4.0396    0.0000 C   0  0  0  0  0  0  0  0  0  0  0  0
   -9.7730   -5.5068    0.0000 C   0  0  0  0  0  0  0  0  0  0  0  0
   -8.0346   -3.5760    0.0000 N   0  0  0  0  0  0  0  0  0  0  0  0
   -6.9199   -4.5797    0.0000 C   0  0  0  0  0  0  0  0  0  0  0  0
   -7.2317   -6.0469    0.0000 O   0  0  0  0  0  0  0  0  0  0  0  0
   -5.4933   -4.1162    0.0000 C   0  0  0  0  0  0  0  0  0  0  0  0
   -5.1814   -2.6490    0.0000 C   0  0  0  0  0  0  0  0  0  0  0  0
   -3.7548   -2.1855    0.0000 C   0  0  0  0  0  0  0  0  0  0  0  0
   -2.6401   -3.1891    0.0000 C   0  0  0  0  0  0  0  0  0  0  0  0
   -1.2135   -2.7256    0.0000 N   0  0  0  0  0  0  0  0  0  0  0  0
   -0.0000   -3.6073    0.0000 C   0  0  0  0  0  0  0  0  0  0  0  0
   -0.0000   -5.1073    0.0000 N   0  0  0  0  0  0  0  0  0  0  0  0
    1.2990   -5.8573    0.0000 C   0  0  0  0  0  0  0  0  0  0  0  0
    2.5981   -5.1073    0.0000 O   0  0  0  0  0  0  0  0  0  0  0  0
    1.2990   -7.3573    0.0000 C   0  0  0  0  0  0  0  0  0  0  0  0
   -0.0000   -8.1073    0.0000 C   0  0  0  0  0  0  0  0  0  0  0  0
   -0.0000   -9.6073    0.0000 C   0  0  0  0  0  0  0  0  0  0  0  0
    1.2990  -10.3573    0.0000 C   0  0  0  0  0  0  0  0  0  0  0  0
    1.2990  -11.8573    0.0000 F   0  0  0  0  0  0  0  0  0  0  0  0
    2.5981   -9.6073    0.0000 C   0  0  0  0  0  0  0  0  0  0  0  0
    2.5981   -8.1073    0.0000 C   0  0  0  0  0  0  0  0  0  0  0  0
    1.2135   -2.7256    0.0000 N   0  0  0  0  0  0  0  0  0  0  0  0
    0.7500   -1.2990    0.0000 C   0  0  0  0  0  0  0  0  0  0  0  0
    1.5000    0.0000    0.0000 C   0  0  0  0  0  0  0  0  0  0  0  0
    0.7500    1.2990    0.0000 C   0  0  0  0  0  0  0  0  0  0  0  0
   -0.7500    1.2990    0.0000 C   0  0  0  0  0  0  0  0  0  0  0  0
   -1.5000    2.5981    0.0000 C   0  0  0  0  0  0  0  0  0  0  0  0
   -0.7500    3.8971    0.0000 N   0  0  0  0  0  0  0  0  0  0  0  0
    0.7500    3.8971    0.0000 C   0  0  0  0  0  0  0  0  0  0  0  0
    1.5000    5.1962    0.0000 C   0  0  0  0  0  0  0  0  0  0  0  0
    0.7500    6.4952    0.0000 S   0  0  0  0  0  0  0  0  0  0  0  0
    0.4895    7.9724    0.0000 O   0  0  0  0  0  0  0  0  0  0  0  0
    2.1595    7.0082    0.0000 O   0  0  0  0  0  0  0  0  0  0  0  0
   -0.7500    6.4952    0.0000 C   0  0  0  0  0  0  0  0  0  0  0  0
   -1.5000    5.1962    0.0000 C   0  0  0  0  0  0  0  0  0  0  0  0
   -1.5000    0.0000    0.0000 C   0  0  0  0  0  0  0  0  0  0  0  0
   -0.7500   -1.2990    0.0000 C   0  0  0  0  0  0  0  0  0  0  0  0
   -2.9520   -4.6564    0.0000 C   0  0  0  0  0  0  0  0  0  0  0  0
   -4.3786   -5.1199    0.0000 C   0  0  0  0  0  0  0  0  0  0  0  0
  1  2  1  0
  2  3  1  0
  2  4  1  0
  4  5  1  0
  5  6  2  0
  7  5  1  1
  7  8  1  0
  8  9  1  0
  9 10  1  0
 10 11  1  1
 11 12  1  0
 12 13  2  0
 13 14  1  0
 14 15  2  0
 14 16  1  0
 16 17  2  0
 17 18  1  0
 18 19  2  0
 19 20  1  0
 19 21  1  0
 21 22  2  0
 12 23  1  0
 23 24  1  0
 24 25  2  0
 25 26  1  0
 26 27  2  0
 27 28  1  0
 28 29  1  0
 29 30  1  0
 30 31  1  0
 31 32  1  0
 32 33  2  0
 32 34  2  0
 32 35  1  0
 35 36  1  0
 27 37  1  0
 37 38  2  0
 10 39  1  0
 39 40  1  0
 40  7  1  0
 38 11  1  0
 22 16  1  0
 38 24  1  0
 36 29  1  0
M  END
>  <Compound_ID>  (154) 
CHEMBL2172331

>  <Molecule Name>  (154) 
nan

>  <Molecular Weight>  (154) 
569.7

>  <AlogP>  (154) 
3.34

>  <Smiles>  (154) 
CC(C)NC(=O)[C@H]1CC[C@@H](n2/c(=N/C(=O)c3ccc(F)cc3)[nH]c3ccc(CN4CCS(=O)(=O)CC4)cc32)CC1

>  <Standard Type>  (154) 
IC50

>  <Standard Relation>  (154) 
'='

>  <Standard Units>  (154) 
nM

>  <Standard Value>  (154) 
2.0

>  <Assay ChEMBL ID>  (154) 
CHEMBL2176371

>  <Assay Description>  (154) 
Inhibition of ALK enzyme

>  <BAO Format ID>  (154) 
BAO_0000357

>  <BAO Label>  (154) 
single protein format

>  <Assay Organism>  (154) 
None

>  <Target ChEMBL ID>  (154) 
CHEMBL4247

>  <Target Name>  (154) 
ALK tyrosine kinase receptor

>  <Target Organism>  (154) 
Homo sapiens

>  <Target Type>  (154) 
SINGLE PROTEIN

>  <Document ChEMBL ID>  (154) 
CHEMBL2169770

>  <Source Description>  (154) 
Scientific Literature

>  <Document Journal>  (154) 
J Med Chem

>  <Document Year>  (154) 
2012.0

>  <Active>  (154) 
1.0

>  <bits>  (154) 
<rdkit.DataStructs.cDataStructs.ExplicitBitVect object at 0x000002422F1E1930>

>  <Group>  (154) 
G2

$$$$

     RDKit          2D

 38 43  0  0  0  0  0  0  0  0999 V2000
   -6.8516   -6.6578    0.0000 C   0  0  0  0  0  0  0  0  0  0  0  0
   -5.6381   -7.5395    0.0000 C   0  0  0  0  0  0  0  0  0  0  0  0
   -4.2677   -6.9294    0.0000 C   0  0  0  0  0  0  0  0  0  0  0  0
   -4.1110   -5.4376    0.0000 C   0  0  0  0  0  0  0  0  0  0  0  0
   -2.7406   -4.8275    0.0000 C   0  0  0  0  0  0  0  0  0  0  0  0
   -1.5271   -5.7092    0.0000 C   0  0  0  0  0  0  0  0  0  0  0  0
   -1.6839   -7.2010    0.0000 C   0  0  0  0  0  0  0  0  0  0  0  0
   -3.0542   -7.8111    0.0000 C   0  0  0  0  0  0  0  0  0  0  0  0
   -3.2110   -9.3029    0.0000 N   0  0  0  0  0  0  0  0  0  0  0  0
   -4.5813   -9.9130    0.0000 C   0  0  0  0  0  0  0  0  0  0  0  0
   -4.7381  -11.4047    0.0000 C   0  0  0  0  0  0  0  0  0  0  0  0
   -3.5246  -12.2864    0.0000 N   0  0  0  0  0  0  0  0  0  0  0  0
   -3.6814  -13.7782    0.0000 C   0  0  0  0  0  0  0  0  0  0  0  0
   -2.4679  -14.6599    0.0000 O   0  0  0  0  0  0  0  0  0  0  0  0
   -5.0517  -14.3883    0.0000 C   0  0  0  0  0  0  0  0  0  0  0  0
   -6.2652  -13.5066    0.0000 C   0  0  0  0  0  0  0  0  0  0  0  0
   -7.6356  -14.1167    0.0000 O   0  0  0  0  0  0  0  0  0  0  0  0
   -7.7923  -15.6085    0.0000 C   0  0  0  0  0  0  0  0  0  0  0  0
   -6.5788  -16.4902    0.0000 C   0  0  0  0  0  0  0  0  0  0  0  0
   -5.2085  -15.8801    0.0000 N   0  0  0  0  0  0  0  0  0  0  0  0
   -2.1543  -11.6763    0.0000 C   0  0  0  0  0  0  0  0  0  0  0  0
   -1.9975  -10.1845    0.0000 C   0  0  0  0  0  0  0  0  0  0  0  0
   -0.1568   -5.0991    0.0000 C   0  0  0  0  0  0  0  0  0  0  0  0
    1.3396   -4.9944    0.0000 C   0  0  0  0  0  0  0  0  0  0  0  0
    0.2061   -6.5545    0.0000 C   0  0  0  0  0  0  0  0  0  0  0  0
   -0.0000   -3.6073    0.0000 C   0  0  0  0  0  0  0  0  0  0  0  0
    1.2135   -2.7256    0.0000 N   0  0  0  0  0  0  0  0  0  0  0  0
    0.7500   -1.2990    0.0000 C   0  0  0  0  0  0  0  0  0  0  0  0
    1.5000    0.0000    0.0000 C   0  0  0  0  0  0  0  0  0  0  0  0
    0.7500    1.2990    0.0000 C   0  0  0  0  0  0  0  0  0  0  0  0
    1.5000    2.5981    0.0000 C   0  0  0  0  0  0  0  0  0  0  0  0
    2.2500    3.8971    0.0000 N   0  0  0  0  0  0  0  0  0  0  0  0
   -0.7500    1.2990    0.0000 C   0  0  0  0  0  0  0  0  0  0  0  0
   -1.5000    0.0000    0.0000 C   0  0  0  0  0  0  0  0  0  0  0  0
   -0.7500   -1.2990    0.0000 C   0  0  0  0  0  0  0  0  0  0  0  0
   -1.2135   -2.7256    0.0000 C   0  0  0  0  0  0  0  0  0  0  0  0
   -2.5838   -3.3357    0.0000 C   0  0  0  0  0  0  0  0  0  0  0  0
   -3.7974   -2.4540    0.0000 O   0  0  0  0  0  0  0  0  0  0  0  0
  1  2  1  0
  2  3  1  0
  3  4  2  0
  4  5  1  0
  5  6  2  0
  6  7  1  0
  7  8  2  0
  8  9  1  0
  9 10  1  0
 10 11  1  0
 11 12  1  0
 12 13  1  0
 13 14  2  0
 13 15  1  0
 15 16  1  0
 16 17  1  0
 17 18  1  0
 18 19  1  0
 19 20  1  0
 12 21  1  0
 21 22  1  0
  6 23  1  0
 23 24  1  0
 23 25  1  0
 23 26  1  0
 26 27  1  0
 27 28  1  0
 28 29  2  0
 29 30  1  0
 30 31  1  0
 31 32  3  0
 30 33  2  0
 33 34  1  0
 34 35  2  0
 35 36  1  0
 36 37  1  0
 37 38  2  0
  8  3  1  0
 22  9  1  0
 36 26  2  0
 37  5  1  0
 20 15  1  0
 35 28  1  0
M  END
>  <Compound_ID>  (155) 
CHEMBL3734938

>  <Molecule Name>  (155) 
nan

>  <Molecular Weight>  (155) 
511.63

>  <AlogP>  (155) 
3.11

>  <Smiles>  (155) 
CCc1cc2c(cc1N1CCN(C(=O)C3COCCN3)CC1)C(C)(C)c1[nH]c3cc(C#N)ccc3c1C2=O

>  <Standard Type>  (155) 
IC50

>  <Standard Relation>  (155) 
'='

>  <Standard Units>  (155) 
nM

>  <Standard Value>  (155) 
0.8

>  <Assay ChEMBL ID>  (155) 
CHEMBL3738493

>  <Assay Description>  (155) 
Inhibition of recombinant ALK (unknown origin) using poly (Glu, Tyr)4:1 substrate incubated for 60 mins by ELISA

>  <BAO Format ID>  (155) 
BAO_0000357

>  <BAO Label>  (155) 
single protein format

>  <Assay Organism>  (155) 
Homo sapiens

>  <Target ChEMBL ID>  (155) 
CHEMBL4247

>  <Target Name>  (155) 
ALK tyrosine kinase receptor

>  <Target Organism>  (155) 
Homo sapiens

>  <Target Type>  (155) 
SINGLE PROTEIN

>  <Document ChEMBL ID>  (155) 
CHEMBL3734710

>  <Source Description>  (155) 
Scientific Literature

>  <Document Journal>  (155) 
Eur J Med Chem

>  <Document Year>  (155) 
2015.0

>  <Active>  (155) 
1.0

>  <bits>  (155) 
<rdkit.DataStructs.cDataStructs.ExplicitBitVect object at 0x000002422F1E15B0>

>  <Group>  (155) 
G2

$$$$

     RDKit          2D

 32 35  0  0  0  0  0  0  0  0999 V2000
   -3.1476   -2.1380    0.0000 C   0  0  0  0  0  0  0  0  0  0  0  0
   -1.6852   -2.4718    0.0000 C   0  0  0  0  0  0  0  0  0  0  0  0
   -1.3515   -3.9342    0.0000 C   0  0  0  0  0  0  0  0  0  0  0  0
   -0.0000   -4.5850    0.0000 N   0  0  0  0  0  0  0  0  0  0  0  0
   -0.0000   -6.0850    0.0000 C   0  0  0  0  0  0  0  0  0  0  0  0
    1.3515   -3.9342    0.0000 C   0  0  0  0  0  0  0  0  0  0  0  0
    1.6852   -2.4718    0.0000 C   0  0  0  0  0  0  0  0  0  0  0  0
    0.7500   -1.2990    0.0000 C   0  0  0  0  0  0  0  0  0  0  0  0
    1.5000    0.0000    0.0000 C   0  0  0  0  0  0  0  0  0  0  0  0
    0.7500    1.2990    0.0000 C   0  0  0  0  0  0  0  0  0  0  0  0
   -0.7500    1.2990    0.0000 C   0  0  0  0  0  0  0  0  0  0  0  0
   -1.5000    2.5981    0.0000 N   0  0  0  0  0  0  0  0  0  0  0  0
   -0.7500    3.8971    0.0000 C   0  0  0  0  0  0  0  0  0  0  0  0
    0.7500    3.8971    0.0000 N   0  0  0  0  0  0  0  0  0  0  0  0
    1.5000    5.1962    0.0000 C   0  0  0  0  0  0  0  0  0  0  0  0
    0.7500    6.4952    0.0000 C   0  0  0  0  0  0  0  0  0  0  0  0
    1.5000    7.7942    0.0000 Cl  0  0  0  0  0  0  0  0  0  0  0  0
   -0.7500    6.4952    0.0000 C   0  0  0  0  0  0  0  0  0  0  0  0
   -1.5000    7.7942    0.0000 N   0  0  0  0  0  0  0  0  0  0  0  0
   -3.0000    7.7942    0.0000 C   0  0  0  0  0  0  0  0  0  0  0  0
   -3.7500    6.4952    0.0000 C   0  0  0  0  0  0  0  0  0  0  0  0
   -5.2500    6.4952    0.0000 C   0  0  0  0  0  0  0  0  0  0  0  0
   -6.0000    7.7942    0.0000 C   0  0  0  0  0  0  0  0  0  0  0  0
   -5.2500    9.0933    0.0000 C   0  0  0  0  0  0  0  0  0  0  0  0
   -3.7500    9.0933    0.0000 C   0  0  0  0  0  0  0  0  0  0  0  0
   -3.0000   10.3923    0.0000 C   0  0  0  0  0  0  0  0  0  0  0  0
   -1.5000   10.3923    0.0000 O   0  0  0  0  0  0  0  0  0  0  0  0
   -3.7500   11.6913    0.0000 N   0  0  0  0  0  0  0  0  0  0  0  0
   -3.0000   12.9904    0.0000 C   0  0  0  0  0  0  0  0  0  0  0  0
   -1.5000    5.1962    0.0000 N   0  0  0  0  0  0  0  0  0  0  0  0
   -1.5000    0.0000    0.0000 C   0  0  0  0  0  0  0  0  0  0  0  0
   -0.7500   -1.2990    0.0000 C   0  0  0  0  0  0  0  0  0  0  0  0
  1  2  2  0
  2  3  1  0
  3  4  1  0
  4  5  1  0
  4  6  1  0
  6  7  1  0
  7  8  1  0
  8  9  2  0
  9 10  1  0
 10 11  2  0
 11 12  1  0
 12 13  1  0
 13 14  2  0
 14 15  1  0
 15 16  2  0
 16 17  1  0
 16 18  1  0
 18 19  1  0
 19 20  1  0
 20 21  2  0
 21 22  1  0
 22 23  2  0
 23 24  1  0
 24 25  2  0
 25 26  1  0
 26 27  2  0
 26 28  1  0
 28 29  1  0
 18 30  2  0
 11 31  1  0
 31 32  2  0
 32  2  1  0
 32  8  1  0
 30 13  1  0
 25 20  1  0
M  END
>  <Compound_ID>  (156) 
CHEMBL3263974

>  <Molecule Name>  (156) 
nan

>  <Molecular Weight>  (156) 
448.96

>  <AlogP>  (156) 
4.48

>  <Smiles>  (156) 
C=C1CN(C)CCc2ccc(Nc3ncc(Cl)c(Nc4ccccc4C(=O)NC)n3)cc21

>  <Standard Type>  (156) 
IC50

>  <Standard Relation>  (156) 
'='

>  <Standard Units>  (156) 
nM

>  <Standard Value>  (156) 
60.0

>  <Assay ChEMBL ID>  (156) 
CHEMBL3267806

>  <Assay Description>  (156) 
Inhibition of purified recombinant ALK (unknown origin) after 60 mins by ELISA

>  <BAO Format ID>  (156) 
BAO_0000357

>  <BAO Label>  (156) 
single protein format

>  <Assay Organism>  (156) 
Homo sapiens

>  <Target ChEMBL ID>  (156) 
CHEMBL4247

>  <Target Name>  (156) 
ALK tyrosine kinase receptor

>  <Target Organism>  (156) 
Homo sapiens

>  <Target Type>  (156) 
SINGLE PROTEIN

>  <Document ChEMBL ID>  (156) 
CHEMBL3259567

>  <Source Description>  (156) 
Scientific Literature

>  <Document Journal>  (156) 
ACS Med Chem Lett

>  <Document Year>  (156) 
2014.0

>  <Active>  (156) 
1.0

>  <bits>  (156) 
<rdkit.DataStructs.cDataStructs.ExplicitBitVect object at 0x000002422F1E0F90>

>  <Group>  (156) 
G2

$$$$

     RDKit          2D

 38 42  0  0  0  0  0  0  0  0999 V2000
  -10.5759   -3.0359    0.0000 C   0  0  0  0  0  0  0  0  0  0  0  0
   -9.4612   -4.0396    0.0000 C   0  0  0  0  0  0  0  0  0  0  0  0
   -8.0346   -3.5760    0.0000 N   0  0  0  0  0  0  0  0  0  0  0  0
   -7.7227   -2.1088    0.0000 C   0  0  0  0  0  0  0  0  0  0  0  0
   -8.8374   -1.1051    0.0000 C   0  0  0  0  0  0  0  0  0  0  0  0
   -6.9199   -4.5797    0.0000 C   0  0  0  0  0  0  0  0  0  0  0  0
   -7.2317   -6.0469    0.0000 O   0  0  0  0  0  0  0  0  0  0  0  0
   -5.4933   -4.1162    0.0000 C   0  0  0  0  0  0  0  0  0  0  0  0
   -5.1814   -2.6490    0.0000 C   0  0  0  0  0  0  0  0  0  0  0  0
   -3.7548   -2.1855    0.0000 C   0  0  0  0  0  0  0  0  0  0  0  0
   -2.6401   -3.1891    0.0000 C   0  0  0  0  0  0  0  0  0  0  0  0
   -1.2135   -2.7256    0.0000 N   0  0  0  0  0  0  0  0  0  0  0  0
   -0.0000   -3.6073    0.0000 C   0  0  0  0  0  0  0  0  0  0  0  0
   -0.0000   -5.1073    0.0000 N   0  0  0  0  0  0  0  0  0  0  0  0
    1.2990   -5.8573    0.0000 C   0  0  0  0  0  0  0  0  0  0  0  0
    2.5981   -5.1073    0.0000 O   0  0  0  0  0  0  0  0  0  0  0  0
    1.2990   -7.3573    0.0000 C   0  0  0  0  0  0  0  0  0  0  0  0
   -0.0000   -8.1073    0.0000 C   0  0  0  0  0  0  0  0  0  0  0  0
   -0.0000   -9.6073    0.0000 C   0  0  0  0  0  0  0  0  0  0  0  0
    1.2990  -10.3573    0.0000 C   0  0  0  0  0  0  0  0  0  0  0  0
    2.5981   -9.6073    0.0000 C   0  0  0  0  0  0  0  0  0  0  0  0
    2.5981   -8.1073    0.0000 C   0  0  0  0  0  0  0  0  0  0  0  0
    1.2135   -2.7256    0.0000 N   0  0  0  0  0  0  0  0  0  0  0  0
    0.7500   -1.2990    0.0000 C   0  0  0  0  0  0  0  0  0  0  0  0
    1.5000    0.0000    0.0000 C   0  0  0  0  0  0  0  0  0  0  0  0
    0.7500    1.2990    0.0000 C   0  0  0  0  0  0  0  0  0  0  0  0
   -0.7500    1.2990    0.0000 C   0  0  0  0  0  0  0  0  0  0  0  0
   -1.5000    2.5981    0.0000 C   0  0  0  0  0  0  0  0  0  0  0  0
   -0.7500    3.8971    0.0000 N   0  0  0  0  0  0  0  0  0  0  0  0
    0.7500    3.8971    0.0000 C   0  0  0  0  0  0  0  0  0  0  0  0
    1.5000    5.1962    0.0000 C   0  0  0  0  0  0  0  0  0  0  0  0
    0.7500    6.4952    0.0000 C   0  0  0  0  0  0  0  0  0  0  0  0
   -0.7500    6.4952    0.0000 C   0  0  0  0  0  0  0  0  0  0  0  0
   -1.5000    5.1962    0.0000 C   0  0  0  0  0  0  0  0  0  0  0  0
   -1.5000    0.0000    0.0000 C   0  0  0  0  0  0  0  0  0  0  0  0
   -0.7500   -1.2990    0.0000 C   0  0  0  0  0  0  0  0  0  0  0  0
   -2.9520   -4.6564    0.0000 C   0  0  0  0  0  0  0  0  0  0  0  0
   -4.3786   -5.1199    0.0000 C   0  0  0  0  0  0  0  0  0  0  0  0
  1  2  1  0
  2  3  1  0
  3  4  1  0
  4  5  1  0
  3  6  1  0
  6  7  2  0
  8  6  1  1
  8  9  1  0
  9 10  1  0
 10 11  1  0
 11 12  1  1
 12 13  1  0
 13 14  2  0
 14 15  1  0
 15 16  2  0
 15 17  1  0
 17 18  2  0
 18 19  1  0
 19 20  2  0
 20 21  1  0
 21 22  2  0
 13 23  1  0
 23 24  1  0
 24 25  2  0
 25 26  1  0
 26 27  2  0
 27 28  1  0
 28 29  1  0
 29 30  1  0
 30 31  1  0
 31 32  1  0
 32 33  1  0
 33 34  1  0
 27 35  1  0
 35 36  2  0
 11 37  1  0
 37 38  1  0
 38  8  1  0
 36 12  1  0
 22 17  1  0
 36 24  1  0
 34 29  1  0
M  END
>  <Compound_ID>  (157) 
CHEMBL2172326

>  <Molecule Name>  (157) 
nan

>  <Molecular Weight>  (157) 
515.7

>  <AlogP>  (157) 
5.30

>  <Smiles>  (157) 
CCN(CC)C(=O)[C@H]1CC[C@@H](n2/c(=N/C(=O)c3ccccc3)[nH]c3ccc(CN4CCCCC4)cc32)CC1

>  <Standard Type>  (157) 
IC50

>  <Standard Relation>  (157) 
'='

>  <Standard Units>  (157) 
nM

>  <Standard Value>  (157) 
24.0

>  <Assay ChEMBL ID>  (157) 
CHEMBL2176371

>  <Assay Description>  (157) 
Inhibition of ALK enzyme

>  <BAO Format ID>  (157) 
BAO_0000357

>  <BAO Label>  (157) 
single protein format

>  <Assay Organism>  (157) 
None

>  <Target ChEMBL ID>  (157) 
CHEMBL4247

>  <Target Name>  (157) 
ALK tyrosine kinase receptor

>  <Target Organism>  (157) 
Homo sapiens

>  <Target Type>  (157) 
SINGLE PROTEIN

>  <Document ChEMBL ID>  (157) 
CHEMBL2169770

>  <Source Description>  (157) 
Scientific Literature

>  <Document Journal>  (157) 
J Med Chem

>  <Document Year>  (157) 
2012.0

>  <Active>  (157) 
1.0

>  <bits>  (157) 
<rdkit.DataStructs.cDataStructs.ExplicitBitVect object at 0x000002422F1E0F20>

>  <Group>  (157) 
G2

$$$$

     RDKit          2D

 30 32  0  0  0  0  0  0  0  0999 V2000
    5.2500   -1.2990    0.0000 C   0  0  0  0  0  0  0  0  0  0  0  0
    3.7500   -1.2990    0.0000 N   0  0  0  0  0  0  0  0  0  0  0  0
    3.0000    0.0000    0.0000 C   0  0  0  0  0  0  0  0  0  0  0  0
    3.7500    1.2990    0.0000 O   0  0  0  0  0  0  0  0  0  0  0  0
    1.5000    0.0000    0.0000 C   0  0  0  0  0  0  0  0  0  0  0  0
    0.7500   -1.2990    0.0000 C   0  0  0  0  0  0  0  0  0  0  0  0
   -0.7500   -1.2990    0.0000 C   0  0  0  0  0  0  0  0  0  0  0  0
   -1.5000    0.0000    0.0000 C   0  0  0  0  0  0  0  0  0  0  0  0
   -0.7500    1.2990    0.0000 C   0  0  0  0  0  0  0  0  0  0  0  0
    0.7500    1.2990    0.0000 C   0  0  0  0  0  0  0  0  0  0  0  0
    1.5000    2.5981    0.0000 N   0  0  0  0  0  0  0  0  0  0  0  0
    0.7500    3.8971    0.0000 C   0  0  0  0  0  0  0  0  0  0  0  0
    1.5000    5.1962    0.0000 N   0  0  0  0  0  0  0  0  0  0  0  0
    0.7500    6.4952    0.0000 C   0  0  0  0  0  0  0  0  0  0  0  0
    1.5000    7.7942    0.0000 N   0  0  0  0  0  0  0  0  0  0  0  0
    3.0000    7.7942    0.0000 C   0  0  0  0  0  0  0  0  0  0  0  0
    3.7500    6.4952    0.0000 C   0  0  0  0  0  0  0  0  0  0  0  0
    5.2500    6.4952    0.0000 C   0  0  0  0  0  0  0  0  0  0  0  0
    6.0000    7.7942    0.0000 C   0  0  0  0  0  0  0  0  0  0  0  0
    5.2500    9.0933    0.0000 C   0  0  0  0  0  0  0  0  0  0  0  0
    6.0000   10.3923    0.0000 N   0  0  0  0  0  0  0  0  0  0  0  0
    7.5000   10.3923    0.0000 C   0  0  0  0  0  0  0  0  0  0  0  0
    8.2500    9.0933    0.0000 O   0  0  0  0  0  0  0  0  0  0  0  0
    8.2500   11.6913    0.0000 C   0  0  0  0  0  0  0  0  0  0  0  0
    9.7500   11.6913    0.0000 N   0  0  0  0  0  0  0  0  0  0  0  0
    3.7500    9.0933    0.0000 C   0  0  0  0  0  0  0  0  0  0  0  0
   -0.7500    6.4952    0.0000 N   0  0  0  0  0  0  0  0  0  0  0  0
   -1.5000    5.1962    0.0000 C   0  0  0  0  0  0  0  0  0  0  0  0
   -0.7500    3.8971    0.0000 C   0  0  0  0  0  0  0  0  0  0  0  0
   -1.5000    2.5981    0.0000 Cl  0  0  0  0  0  0  0  0  0  0  0  0
  1  2  1  0
  2  3  1  0
  3  4  2  0
  3  5  1  0
  5  6  2  0
  6  7  1  0
  7  8  2  0
  8  9  1  0
  9 10  2  0
 10 11  1  0
 11 12  1  0
 12 13  2  0
 13 14  1  0
 14 15  1  0
 15 16  1  0
 16 17  2  0
 17 18  1  0
 18 19  2  0
 19 20  1  0
 20 21  1  0
 21 22  1  0
 22 23  2  0
 22 24  1  0
 24 25  1  0
 20 26  2  0
 14 27  2  0
 27 28  1  0
 28 29  2  0
 29 30  1  0
 10  5  1  0
 29 12  1  0
 26 16  1  0
M  END
>  <Compound_ID>  (158) 
CHEMBL3356906

>  <Molecule Name>  (158) 
nan

>  <Molecular Weight>  (158) 
425.88

>  <AlogP>  (158) 
2.87

>  <Smiles>  (158) 
CNC(=O)c1ccccc1Nc1nc(Nc2cccc(NC(=O)CN)c2)ncc1Cl

>  <Standard Type>  (158) 
IC50

>  <Standard Relation>  (158) 
'='

>  <Standard Units>  (158) 
nM

>  <Standard Value>  (158) 
32.8

>  <Assay ChEMBL ID>  (158) 
CHEMBL3364272

>  <Assay Description>  (158) 
Inhibition of ALK (unknown origin) after 60 mins by ELISA

>  <BAO Format ID>  (158) 
BAO_0000357

>  <BAO Label>  (158) 
single protein format

>  <Assay Organism>  (158) 
Homo sapiens

>  <Target ChEMBL ID>  (158) 
CHEMBL4247

>  <Target Name>  (158) 
ALK tyrosine kinase receptor

>  <Target Organism>  (158) 
Homo sapiens

>  <Target Type>  (158) 
SINGLE PROTEIN

>  <Document ChEMBL ID>  (158) 
CHEMBL3351234

>  <Source Description>  (158) 
Scientific Literature

>  <Document Journal>  (158) 
J Med Chem

>  <Document Year>  (158) 
2015.0

>  <Active>  (158) 
1.0

>  <bits>  (158) 
<rdkit.DataStructs.cDataStructs.ExplicitBitVect object at 0x000002422F1E0BA0>

>  <Group>  (158) 
G2

$$$$

     RDKit          2D

 41 45  0  0  0  0  0  0  0  0999 V2000
    3.7500   -6.4952    0.0000 C   0  0  0  0  0  0  0  0  0  0  0  0
    3.0000   -5.1962    0.0000 O   0  0  0  0  0  0  0  0  0  0  0  0
    1.5000   -5.1962    0.0000 C   0  0  0  0  0  0  0  0  0  0  0  0
    0.7500   -6.4952    0.0000 C   0  0  0  0  0  0  0  0  0  0  0  0
   -0.7500   -6.4952    0.0000 C   0  0  0  0  0  0  0  0  0  0  0  0
   -1.5000   -7.7942    0.0000 C   0  0  0  0  0  0  0  0  0  0  0  0
   -2.6491   -6.8300    0.0000 O   0  0  0  0  0  0  0  0  0  0  0  0
   -0.0905   -8.3073    0.0000 C   0  0  0  0  0  0  0  0  0  0  0  0
    0.1700   -9.7845    0.0000 C   0  0  0  0  0  0  0  0  0  0  0  0
   -0.9791  -10.7487    0.0000 N   0  0  0  0  0  0  0  0  0  0  0  0
   -0.7186  -12.2259    0.0000 C   0  0  0  0  0  0  0  0  0  0  0  0
    0.6910  -12.7389    0.0000 O   0  0  0  0  0  0  0  0  0  0  0  0
   -1.8676  -13.1900    0.0000 O   0  0  0  0  0  0  0  0  0  0  0  0
   -1.6072  -14.6673    0.0000 C   0  0  0  0  0  0  0  0  0  0  0  0
   -3.0844  -14.9277    0.0000 C   0  0  0  0  0  0  0  0  0  0  0  0
   -0.1300  -14.4068    0.0000 C   0  0  0  0  0  0  0  0  0  0  0  0
   -1.3467  -16.1445    0.0000 C   0  0  0  0  0  0  0  0  0  0  0  0
   -2.3886  -10.2356    0.0000 C   0  0  0  0  0  0  0  0  0  0  0  0
   -2.6491   -8.7584    0.0000 C   0  0  0  0  0  0  0  0  0  0  0  0
   -4.0586   -8.2454    0.0000 O   0  0  0  0  0  0  0  0  0  0  0  0
   -1.5000   -5.1962    0.0000 C   0  0  0  0  0  0  0  0  0  0  0  0
   -0.7500   -3.8971    0.0000 C   0  0  0  0  0  0  0  0  0  0  0  0
    0.7500   -3.8971    0.0000 C   0  0  0  0  0  0  0  0  0  0  0  0
    1.5000   -2.5981    0.0000 N   0  0  0  0  0  0  0  0  0  0  0  0
    0.7500   -1.2990    0.0000 C   0  0  0  0  0  0  0  0  0  0  0  0
    1.5000    0.0000    0.0000 N   0  0  0  0  0  0  0  0  0  0  0  0
    0.7500    1.2990    0.0000 C   0  0  0  0  0  0  0  0  0  0  0  0
   -0.7500    1.2990    0.0000 C   0  0  0  0  0  0  0  0  0  0  0  0
   -1.7537    2.4138    0.0000 C   0  0  0  0  0  0  0  0  0  0  0  0
   -3.1240    1.8037    0.0000 C   0  0  0  0  0  0  0  0  0  0  0  0
   -2.9672    0.3119    0.0000 C   0  0  0  0  0  0  0  0  0  0  0  0
   -4.0819   -0.6918    0.0000 C   0  0  0  0  0  0  0  0  0  0  0  0
   -5.5085   -0.2283    0.0000 C   0  0  0  0  0  0  0  0  0  0  0  0
   -6.6232   -1.2320    0.0000 C   0  0  0  0  0  0  0  0  0  0  0  0
   -6.3114   -2.6992    0.0000 C   0  0  0  0  0  0  0  0  0  0  0  0
   -4.8848   -3.1627    0.0000 C   0  0  0  0  0  0  0  0  0  0  0  0
   -3.7701   -2.1590    0.0000 C   0  0  0  0  0  0  0  0  0  0  0  0
   -2.3435   -2.6226    0.0000 O   0  0  0  0  0  0  0  0  0  0  0  0
   -2.0316   -4.0898    0.0000 C   0  0  0  0  0  0  0  0  0  0  0  0
   -1.5000    0.0000    0.0000 N   0  0  0  0  0  0  0  0  0  0  0  0
   -0.7500   -1.2990    0.0000 N   0  0  0  0  0  0  0  0  0  0  0  0
  1  2  1  0
  2  3  1  0
  3  4  2  0
  4  5  1  0
  5  6  1  0
  6  7  1  6
  6  8  1  0
  8  9  1  0
  9 10  1  0
 10 11  1  0
 11 12  2  0
 11 13  1  0
 13 14  1  0
 14 15  1  0
 14 16  1  0
 14 17  1  0
 10 18  1  0
 18 19  1  0
 19 20  1  6
  5 21  2  0
 21 22  1  0
 22 23  2  0
 23 24  1  0
 24 25  1  0
 25 26  1  0
 26 27  2  0
 27 28  1  0
 28 29  2  0
 29 30  1  0
 30 31  2  0
 31 32  1  0
 32 33  2  0
 33 34  1  0
 34 35  2  0
 35 36  1  0
 36 37  2  0
 37 38  1  0
 38 39  1  0
 31 40  1  0
 40 41  1  0
 23  3  1  0
 41 25  2  0
 19  6  1  0
 40 28  1  0
 37 32  1  0
M  END
>  <Compound_ID>  (159) 
CHEMBL3398167

>  <Molecule Name>  (159) 
nan

>  <Molecular Weight>  (159) 
561.64

>  <AlogP>  (159) 
4.35

>  <Smiles>  (159) 
COc1cc([C@@]2(O)CCN(C(=O)OC(C)(C)C)C[C@@H]2O)ccc1Nc1ncc2ccc(-c3ccccc3OC)n2n1

>  <Standard Type>  (159) 
IC50

>  <Standard Relation>  (159) 
'='

>  <Standard Units>  (159) 
nM

>  <Standard Value>  (159) 
57.0

>  <Assay ChEMBL ID>  (159) 
CHEMBL3398705

>  <Assay Description>  (159) 
Inhibition of ALK (unknown origin) by enzymatic assay

>  <BAO Format ID>  (159) 
BAO_0000357

>  <BAO Label>  (159) 
single protein format

>  <Assay Organism>  (159) 
Homo sapiens

>  <Target ChEMBL ID>  (159) 
CHEMBL4247

>  <Target Name>  (159) 
ALK tyrosine kinase receptor

>  <Target Organism>  (159) 
Homo sapiens

>  <Target Type>  (159) 
SINGLE PROTEIN

>  <Document ChEMBL ID>  (159) 
CHEMBL3396997

>  <Source Description>  (159) 
Scientific Literature

>  <Document Journal>  (159) 
Bioorg Med Chem Lett

>  <Document Year>  (159) 
2015.0

>  <Active>  (159) 
1.0

>  <bits>  (159) 
<rdkit.DataStructs.cDataStructs.ExplicitBitVect object at 0x000002422F1E04A0>

>  <Group>  (159) 
G2

$$$$

     RDKit          2D

 34 38  0  0  0  0  0  0  0  0999 V2000
   -6.8516   -6.6578    0.0000 C   0  0  0  0  0  0  0  0  0  0  0  0
   -5.6381   -7.5395    0.0000 C   0  0  0  0  0  0  0  0  0  0  0  0
   -4.2677   -6.9294    0.0000 C   0  0  0  0  0  0  0  0  0  0  0  0
   -4.1110   -5.4376    0.0000 C   0  0  0  0  0  0  0  0  0  0  0  0
   -2.7406   -4.8275    0.0000 C   0  0  0  0  0  0  0  0  0  0  0  0
   -1.5271   -5.7092    0.0000 C   0  0  0  0  0  0  0  0  0  0  0  0
   -1.6839   -7.2010    0.0000 C   0  0  0  0  0  0  0  0  0  0  0  0
   -3.0542   -7.8111    0.0000 C   0  0  0  0  0  0  0  0  0  0  0  0
   -3.2110   -9.3029    0.0000 C   0  0  0  0  0  0  0  0  0  0  0  0
   -4.5813   -9.9130    0.0000 C   0  0  0  0  0  0  0  0  0  0  0  0
   -4.7381  -11.4047    0.0000 C   0  0  0  0  0  0  0  0  0  0  0  0
   -3.5246  -12.2864    0.0000 C   0  0  0  0  0  0  0  0  0  0  0  0
   -2.1543  -11.6763    0.0000 C   0  0  0  0  0  0  0  0  0  0  0  0
   -0.9408  -12.5580    0.0000 S   0  0  0  0  0  0  0  0  0  0  0  0
    0.2728  -13.4397    0.0000 O   0  0  0  0  0  0  0  0  0  0  0  0
   -1.8224  -13.7715    0.0000 O   0  0  0  0  0  0  0  0  0  0  0  0
   -0.0591  -11.3445    0.0000 F   0  0  0  0  0  0  0  0  0  0  0  0
   -1.9975  -10.1845    0.0000 C   0  0  0  0  0  0  0  0  0  0  0  0
   -0.1568   -5.0991    0.0000 C   0  0  0  0  0  0  0  0  0  0  0  0
    1.3396   -4.9944    0.0000 C   0  0  0  0  0  0  0  0  0  0  0  0
    0.2061   -6.5545    0.0000 C   0  0  0  0  0  0  0  0  0  0  0  0
   -0.0000   -3.6073    0.0000 C   0  0  0  0  0  0  0  0  0  0  0  0
    1.2135   -2.7256    0.0000 N   0  0  0  0  0  0  0  0  0  0  0  0
    0.7500   -1.2990    0.0000 C   0  0  0  0  0  0  0  0  0  0  0  0
    1.5000    0.0000    0.0000 C   0  0  0  0  0  0  0  0  0  0  0  0
    0.7500    1.2990    0.0000 C   0  0  0  0  0  0  0  0  0  0  0  0
    1.5000    2.5981    0.0000 C   0  0  0  0  0  0  0  0  0  0  0  0
    2.2500    3.8971    0.0000 N   0  0  0  0  0  0  0  0  0  0  0  0
   -0.7500    1.2990    0.0000 C   0  0  0  0  0  0  0  0  0  0  0  0
   -1.5000    0.0000    0.0000 C   0  0  0  0  0  0  0  0  0  0  0  0
   -0.7500   -1.2990    0.0000 C   0  0  0  0  0  0  0  0  0  0  0  0
   -1.2135   -2.7256    0.0000 C   0  0  0  0  0  0  0  0  0  0  0  0
   -2.5838   -3.3357    0.0000 C   0  0  0  0  0  0  0  0  0  0  0  0
   -3.7974   -2.4540    0.0000 O   0  0  0  0  0  0  0  0  0  0  0  0
  1  2  1  0
  2  3  1  0
  3  4  2  0
  4  5  1  0
  5  6  2  0
  6  7  1  0
  7  8  2  0
  8  9  1  0
  9 10  2  0
 10 11  1  0
 11 12  2  0
 12 13  1  0
 13 14  1  0
 14 15  2  0
 14 16  2  0
 14 17  1  0
 13 18  2  0
  6 19  1  0
 19 20  1  0
 19 21  1  0
 19 22  1  0
 22 23  1  0
 23 24  1  0
 24 25  2  0
 25 26  1  0
 26 27  1  0
 27 28  3  0
 26 29  2  0
 29 30  1  0
 30 31  2  0
 31 32  1  0
 32 33  1  0
 33 34  2  0
  8  3  1  0
 18  9  1  0
 32 22  2  0
 33  5  1  0
 31 24  1  0
M  END
>  <Compound_ID>  (160) 
CHEMBL4468747

>  <Molecule Name>  (160) 
nan

>  <Molecular Weight>  (160) 
472.54

>  <AlogP>  (160) 
5.80

>  <Smiles>  (160) 
CCc1cc2c(cc1-c1cccc(S(=O)(=O)F)c1)C(C)(C)c1[nH]c3cc(C#N)ccc3c1C2=O

>  <Standard Type>  (160) 
IC50

>  <Standard Relation>  (160) 
'='

>  <Standard Units>  (160) 
nM

>  <Standard Value>  (160) 
11.0

>  <Assay ChEMBL ID>  (160) 
CHEMBL4351070

>  <Assay Description>  (160) 
Inhibition of ALK (unknown origin) by TR-FRET assay

>  <BAO Format ID>  (160) 
BAO_0000357

>  <BAO Label>  (160) 
single protein format

>  <Assay Organism>  (160) 
Homo sapiens

>  <Target ChEMBL ID>  (160) 
CHEMBL4247

>  <Target Name>  (160) 
ALK tyrosine kinase receptor

>  <Target Organism>  (160) 
Homo sapiens

>  <Target Type>  (160) 
SINGLE PROTEIN

>  <Document ChEMBL ID>  (160) 
CHEMBL4350951

>  <Source Description>  (160) 
Scientific Literature

>  <Document Journal>  (160) 
J Med Chem

>  <Document Year>  (160) 
2019.0

>  <Active>  (160) 
1.0

>  <bits>  (160) 
<rdkit.DataStructs.cDataStructs.ExplicitBitVect object at 0x000002422F1E3450>

>  <Group>  (160) 
G2

$$$$

     RDKit          2D

 31 35  0  0  0  0  0  0  0  0999 V2000
    3.7500   -3.8971    0.0000 C   0  0  0  0  0  0  0  0  0  0  0  0
    3.0000   -2.5981    0.0000 C   0  0  0  0  0  0  0  0  0  0  0  0
    1.5000   -2.5981    0.0000 O   0  0  0  0  0  0  0  0  0  0  0  0
    0.7500   -1.2990    0.0000 C   0  0  0  0  0  0  0  0  0  0  0  0
    1.5000    0.0000    0.0000 C   0  0  0  0  0  0  0  0  0  0  0  0
    0.7500    1.2990    0.0000 C   0  0  0  0  0  0  0  0  0  0  0  0
   -0.7500    1.2990    0.0000 C   0  0  0  0  0  0  0  0  0  0  0  0
   -1.5000    0.0000    0.0000 C   0  0  0  0  0  0  0  0  0  0  0  0
   -0.7500   -1.2990    0.0000 C   0  0  0  0  0  0  0  0  0  0  0  0
   -1.7537   -2.4138    0.0000 C   0  0  0  0  0  0  0  0  0  0  0  0
   -1.4418   -3.8810    0.0000 C   0  0  0  0  0  0  0  0  0  0  0  0
   -2.5565   -4.8847    0.0000 C   0  0  0  0  0  0  0  0  0  0  0  0
   -4.0238   -4.5728    0.0000 C   0  0  0  0  0  0  0  0  0  0  0  0
   -4.6339   -3.2025    0.0000 O   0  0  0  0  0  0  0  0  0  0  0  0
   -4.7738   -5.8718    0.0000 N   0  0  0  0  0  0  0  0  0  0  0  0
   -3.7701   -6.9866    0.0000 N   0  0  0  0  0  0  0  0  0  0  0  0
   -2.3998   -6.3765    0.0000 C   0  0  0  0  0  0  0  0  0  0  0  0
   -1.1007   -7.1265    0.0000 C   0  0  0  0  0  0  0  0  0  0  0  0
    0.2696   -6.5164    0.0000 N   0  0  0  0  0  0  0  0  0  0  0  0
    1.2733   -7.6311    0.0000 C   0  0  0  0  0  0  0  0  0  0  0  0
    0.5233   -8.9301    0.0000 C   0  0  0  0  0  0  0  0  0  0  0  0
   -0.9439   -8.6182    0.0000 S   0  0  0  0  0  0  0  0  0  0  0  0
   -3.1240   -1.8037    0.0000 C   0  0  0  0  0  0  0  0  0  0  0  0
   -2.9672   -0.3119    0.0000 N   0  0  0  0  0  0  0  0  0  0  0  0
   -4.0819    0.6918    0.0000 C   0  0  0  0  0  0  0  0  0  0  0  0
    3.7500   -1.2990    0.0000 C   0  0  0  0  0  0  0  0  0  0  0  0
    5.2500   -1.2990    0.0000 C   0  0  0  0  0  0  0  0  0  0  0  0
    6.0000   -0.0000    0.0000 C   0  0  0  0  0  0  0  0  0  0  0  0
    5.2500    1.2990    0.0000 C   0  0  0  0  0  0  0  0  0  0  0  0
    3.7500    1.2990    0.0000 C   0  0  0  0  0  0  0  0  0  0  0  0
    3.0000   -0.0000    0.0000 C   0  0  0  0  0  0  0  0  0  0  0  0
  1  2  1  0
  2  3  1  0
  3  4  1  0
  4  5  2  0
  5  6  1  0
  6  7  2  0
  7  8  1  0
  8  9  2  0
  9 10  1  0
 10 11  1  0
 11 12  2  0
 12 13  1  0
 13 14  2  0
 13 15  1  0
 15 16  1  0
 16 17  2  0
 17 18  1  0
 18 19  2  0
 19 20  1  0
 20 21  2  0
 21 22  1  0
 10 23  2  0
 23 24  1  0
 24 25  1  0
  2 26  1  0
 26 27  2  0
 27 28  1  0
 28 29  2  0
 29 30  1  0
 30 31  2  0
  9  4  1  0
 17 12  1  0
 22 18  1  0
 31 26  1  0
 24  8  1  0
M  END
>  <Compound_ID>  (161) 
CHEMBL1922983

>  <Molecule Name>  (161) 
nan

>  <Molecular Weight>  (161) 
428.52

>  <AlogP>  (161) 
4.69

>  <Smiles>  (161) 
CC(Oc1cccc2c1c(/C=C1\C(=O)NN=C1c1nccs1)cn2C)c1ccccc1

>  <Standard Type>  (161) 
IC50

>  <Standard Relation>  (161) 
'='

>  <Standard Units>  (161) 
nM

>  <Standard Value>  (161) 
42.0

>  <Assay ChEMBL ID>  (161) 
CHEMBL1925015

>  <Assay Description>  (161) 
Inhibition of ALK

>  <BAO Format ID>  (161) 
BAO_0000357

>  <BAO Label>  (161) 
single protein format

>  <Assay Organism>  (161) 
None

>  <Target ChEMBL ID>  (161) 
CHEMBL4247

>  <Target Name>  (161) 
ALK tyrosine kinase receptor

>  <Target Organism>  (161) 
Homo sapiens

>  <Target Type>  (161) 
SINGLE PROTEIN

>  <Document ChEMBL ID>  (161) 
CHEMBL1921676

>  <Source Description>  (161) 
Scientific Literature

>  <Document Journal>  (161) 
Bioorg Med Chem Lett

>  <Document Year>  (161) 
2011.0

>  <Active>  (161) 
1.0

>  <bits>  (161) 
<rdkit.DataStructs.cDataStructs.ExplicitBitVect object at 0x000002422F1E1E00>

>  <Group>  (161) 
G2

$$$$

     RDKit          2D

 41 45  0  0  0  0  0  0  0  0999 V2000
  -10.5759   -3.0359    0.0000 C   0  0  0  0  0  0  0  0  0  0  0  0
   -9.4612   -4.0396    0.0000 C   0  0  0  0  0  0  0  0  0  0  0  0
   -9.7730   -5.5068    0.0000 C   0  0  0  0  0  0  0  0  0  0  0  0
   -8.0346   -3.5760    0.0000 N   0  0  0  0  0  0  0  0  0  0  0  0
   -6.9199   -4.5797    0.0000 C   0  0  0  0  0  0  0  0  0  0  0  0
   -7.2317   -6.0469    0.0000 O   0  0  0  0  0  0  0  0  0  0  0  0
   -5.4933   -4.1162    0.0000 C   0  0  0  0  0  0  0  0  0  0  0  0
   -5.1814   -2.6490    0.0000 C   0  0  0  0  0  0  0  0  0  0  0  0
   -3.7548   -2.1855    0.0000 C   0  0  0  0  0  0  0  0  0  0  0  0
   -2.6401   -3.1891    0.0000 C   0  0  0  0  0  0  0  0  0  0  0  0
   -1.2135   -2.7256    0.0000 N   0  0  0  0  0  0  0  0  0  0  0  0
   -0.0000   -3.6073    0.0000 C   0  0  0  0  0  0  0  0  0  0  0  0
   -0.0000   -5.1073    0.0000 N   0  0  0  0  0  0  0  0  0  0  0  0
    1.2990   -5.8573    0.0000 C   0  0  0  0  0  0  0  0  0  0  0  0
    2.5981   -5.1073    0.0000 O   0  0  0  0  0  0  0  0  0  0  0  0
    1.2990   -7.3573    0.0000 C   0  0  0  0  0  0  0  0  0  0  0  0
   -0.0000   -8.1073    0.0000 C   0  0  0  0  0  0  0  0  0  0  0  0
   -0.0000   -9.6073    0.0000 C   0  0  0  0  0  0  0  0  0  0  0  0
    1.2990  -10.3573    0.0000 C   0  0  0  0  0  0  0  0  0  0  0  0
    2.5981   -9.6073    0.0000 N   0  0  0  0  0  0  0  0  0  0  0  0
    2.5981   -8.1073    0.0000 C   0  0  0  0  0  0  0  0  0  0  0  0
    1.2135   -2.7256    0.0000 N   0  0  0  0  0  0  0  0  0  0  0  0
    0.7500   -1.2990    0.0000 C   0  0  0  0  0  0  0  0  0  0  0  0
    1.5000    0.0000    0.0000 C   0  0  0  0  0  0  0  0  0  0  0  0
    0.7500    1.2990    0.0000 C   0  0  0  0  0  0  0  0  0  0  0  0
   -0.7500    1.2990    0.0000 C   0  0  0  0  0  0  0  0  0  0  0  0
   -1.5000    2.5981    0.0000 C   0  0  0  0  0  0  0  0  0  0  0  0
   -0.7500    3.8971    0.0000 N   0  0  0  0  0  0  0  0  0  0  0  0
    0.7500    3.8971    0.0000 C   0  0  0  0  0  0  0  0  0  0  0  0
    1.5000    5.1962    0.0000 C   0  0  0  0  0  0  0  0  0  0  0  0
    0.7500    6.4952    0.0000 C   0  0  0  0  0  0  0  0  0  0  0  0
    1.5000    7.7942    0.0000 C   0  0  0  0  0  0  0  0  0  0  0  0
    0.2010    8.5442    0.0000 C   0  0  0  0  0  0  0  0  0  0  0  0
    2.7990    7.0442    0.0000 C   0  0  0  0  0  0  0  0  0  0  0  0
    2.2500    9.0933    0.0000 O   0  0  0  0  0  0  0  0  0  0  0  0
   -0.7500    6.4952    0.0000 C   0  0  0  0  0  0  0  0  0  0  0  0
   -1.5000    5.1962    0.0000 C   0  0  0  0  0  0  0  0  0  0  0  0
   -1.5000    0.0000    0.0000 C   0  0  0  0  0  0  0  0  0  0  0  0
   -0.7500   -1.2990    0.0000 C   0  0  0  0  0  0  0  0  0  0  0  0
   -2.9520   -4.6564    0.0000 C   0  0  0  0  0  0  0  0  0  0  0  0
   -4.3786   -5.1199    0.0000 C   0  0  0  0  0  0  0  0  0  0  0  0
  1  2  1  0
  2  3  1  0
  2  4  1  0
  4  5  1  0
  5  6  2  0
  7  5  1  1
  7  8  1  0
  8  9  1  0
  9 10  1  0
 10 11  1  1
 11 12  1  0
 12 13  2  0
 13 14  1  0
 14 15  2  0
 14 16  1  0
 16 17  2  0
 17 18  1  0
 18 19  2  0
 19 20  1  0
 20 21  2  0
 12 22  1  0
 22 23  1  0
 23 24  2  0
 24 25  1  0
 25 26  2  0
 26 27  1  0
 27 28  1  0
 28 29  1  0
 29 30  1  0
 30 31  1  0
 31 32  1  0
 32 33  1  0
 32 34  1  0
 32 35  1  0
 31 36  1  0
 36 37  1  0
 26 38  1  0
 38 39  2  0
 10 40  1  0
 40 41  1  0
 41  7  1  0
 39 11  1  0
 21 16  1  0
 39 23  1  0
 37 28  1  0
M  END
>  <Compound_ID>  (162) 
CHEMBL2172318

>  <Molecule Name>  (162) 
nan

>  <Molecular Weight>  (162) 
560.74

>  <AlogP>  (162) 
4.34

>  <Smiles>  (162) 
CC(C)NC(=O)[C@H]1CC[C@@H](n2/c(=N/C(=O)c3cccnc3)[nH]c3ccc(CN4CCC(C(C)(C)O)CC4)cc32)CC1

>  <Standard Type>  (162) 
IC50

>  <Standard Relation>  (162) 
'='

>  <Standard Units>  (162) 
nM

>  <Standard Value>  (162) 
6.0

>  <Assay ChEMBL ID>  (162) 
CHEMBL2176371

>  <Assay Description>  (162) 
Inhibition of ALK enzyme

>  <BAO Format ID>  (162) 
BAO_0000357

>  <BAO Label>  (162) 
single protein format

>  <Assay Organism>  (162) 
None

>  <Target ChEMBL ID>  (162) 
CHEMBL4247

>  <Target Name>  (162) 
ALK tyrosine kinase receptor

>  <Target Organism>  (162) 
Homo sapiens

>  <Target Type>  (162) 
SINGLE PROTEIN

>  <Document ChEMBL ID>  (162) 
CHEMBL2169770

>  <Source Description>  (162) 
Scientific Literature

>  <Document Journal>  (162) 
J Med Chem

>  <Document Year>  (162) 
2012.0

>  <Active>  (162) 
1.0

>  <bits>  (162) 
<rdkit.DataStructs.cDataStructs.ExplicitBitVect object at 0x000002422F1E3C30>

>  <Group>  (162) 
G2

$$$$

     RDKit          2D

 30 34  0  0  0  0  0  0  0  0999 V2000
    4.6740   -4.8322    0.0000 C   0  0  0  0  0  0  0  0  0  0  0  0
    3.3037   -4.2221    0.0000 N   0  0  0  0  0  0  0  0  0  0  0  0
    2.9918   -2.7549    0.0000 C   0  0  0  0  0  0  0  0  0  0  0  0
    1.5000   -2.5981    0.0000 C   0  0  0  0  0  0  0  0  0  0  0  0
    0.7500   -1.2990    0.0000 C   0  0  0  0  0  0  0  0  0  0  0  0
    1.5000    0.0000    0.0000 C   0  0  0  0  0  0  0  0  0  0  0  0
    0.7500    1.2990    0.0000 N   0  0  0  0  0  0  0  0  0  0  0  0
   -0.7500    1.2990    0.0000 C   0  0  0  0  0  0  0  0  0  0  0  0
   -1.7537    2.4138    0.0000 N   0  0  0  0  0  0  0  0  0  0  0  0
   -3.1240    1.8037    0.0000 C   0  0  0  0  0  0  0  0  0  0  0  0
   -2.9672    0.3119    0.0000 C   0  0  0  0  0  0  0  0  0  0  0  0
   -4.0819   -0.6918    0.0000 C   0  0  0  0  0  0  0  0  0  0  0  0
   -3.9251   -2.1836    0.0000 C   0  0  0  0  0  0  0  0  0  0  0  0
   -5.2955   -2.7937    0.0000 N   0  0  0  0  0  0  0  0  0  0  0  0
   -6.2992   -1.6790    0.0000 N   0  0  0  0  0  0  0  0  0  0  0  0
   -7.7909   -1.8358    0.0000 C   0  0  0  0  0  0  0  0  0  0  0  0
   -8.6726   -0.6223    0.0000 C   0  0  0  0  0  0  0  0  0  0  0  0
   -8.0625    0.7481    0.0000 C   0  0  0  0  0  0  0  0  0  0  0  0
   -8.9442    1.9616    0.0000 C   0  0  0  0  0  0  0  0  0  0  0  0
  -10.4360    1.8048    0.0000 C   0  0  0  0  0  0  0  0  0  0  0  0
  -11.0461    0.4345    0.0000 C   0  0  0  0  0  0  0  0  0  0  0  0
  -12.5379    0.2777    0.0000 N   0  0  0  0  0  4  0  0  0  0  0  0
  -13.1480   -1.0926    0.0000 O   0  0  0  0  0  0  0  0  0  0  0  0
  -13.4195    1.4912    0.0000 O   0  0  0  0  0  1  0  0  0  0  0  0
  -10.1644   -0.7791    0.0000 C   0  0  0  0  0  0  0  0  0  0  0  0
   -5.5492   -0.3800    0.0000 C   0  0  0  0  0  0  0  0  0  0  0  0
   -1.5000    0.0000    0.0000 C   0  0  0  0  0  0  0  0  0  0  0  0
   -0.7500   -1.2990    0.0000 C   0  0  0  0  0  0  0  0  0  0  0  0
    0.8899   -3.9684    0.0000 C   0  0  0  0  0  0  0  0  0  0  0  0
    2.0046   -4.9721    0.0000 N   0  0  0  0  0  0  0  0  0  0  0  0
  1  2  1  0
  2  3  1  0
  3  4  2  0
  4  5  1  0
  5  6  2  0
  6  7  1  0
  7  8  2  0
  8  9  1  0
  9 10  1  0
 10 11  2  0
 11 12  1  0
 12 13  1  0
 13 14  2  0
 14 15  1  0
 15 16  1  0
 16 17  1  0
 17 18  2  0
 18 19  1  0
 19 20  2  0
 20 21  1  0
 21 22  1  0
 22 23  2  0
 22 24  1  0
 21 25  2  0
 15 26  1  0
 11 27  1  0
 27 28  2  0
  4 29  1  0
 29 30  2  0
 30  2  1  0
 28  5  1  0
 27  8  1  0
 26 12  2  0
 25 17  1  0
M  CHG  2  22   1  24  -1
M  END
>  <Compound_ID>  (163) 
CHEMBL2418758

>  <Molecule Name>  (163) 
nan

>  <Molecular Weight>  (163) 
399.41

>  <AlogP>  (163) 
3.78

>  <Smiles>  (163) 
Cn1cc(-c2cnc3[nH]cc(-c4cnn(Cc5cccc([N+](=O)[O-])c5)c4)c3c2)cn1

>  <Standard Type>  (163) 
IC50

>  <Standard Relation>  (163) 
'='

>  <Standard Units>  (163) 
nM

>  <Standard Value>  (163) 
70.0

>  <Assay ChEMBL ID>  (163) 
CHEMBL2423641

>  <Assay Description>  (163) 
Inhibition of wild type human recombinant ALK after 30 mins by TR-FRET assay

>  <BAO Format ID>  (163) 
BAO_0000357

>  <BAO Label>  (163) 
single protein format

>  <Assay Organism>  (163) 
Homo sapiens

>  <Target ChEMBL ID>  (163) 
CHEMBL4247

>  <Target Name>  (163) 
ALK tyrosine kinase receptor

>  <Target Organism>  (163) 
Homo sapiens

>  <Target Type>  (163) 
SINGLE PROTEIN

>  <Document ChEMBL ID>  (163) 
CHEMBL2417505

>  <Source Description>  (163) 
Scientific Literature

>  <Document Journal>  (163) 
Bioorg Med Chem Lett

>  <Document Year>  (163) 
2013.0

>  <Active>  (163) 
1.0

>  <bits>  (163) 
<rdkit.DataStructs.cDataStructs.ExplicitBitVect object at 0x000002422F1E3990>

>  <Group>  (163) 
G2

$$$$

     RDKit          2D

 34 38  0  0  0  0  0  0  0  0999 V2000
    3.7500   -6.4952    0.0000 C   0  0  0  0  0  0  0  0  0  0  0  0
    3.0000   -5.1962    0.0000 O   0  0  0  0  0  0  0  0  0  0  0  0
    1.5000   -5.1962    0.0000 C   0  0  0  0  0  0  0  0  0  0  0  0
    0.7500   -6.4952    0.0000 C   0  0  0  0  0  0  0  0  0  0  0  0
   -0.7500   -6.4952    0.0000 C   0  0  0  0  0  0  0  0  0  0  0  0
   -1.5000   -7.7942    0.0000 C   0  0  0  0  0  0  0  0  0  0  0  0
   -3.0000   -7.7942    0.0000 C   0  0  0  0  0  0  0  0  0  0  0  0
   -3.7500   -9.0933    0.0000 C   0  0  0  0  0  0  0  0  0  0  0  0
   -3.0000  -10.3923    0.0000 N   0  0  0  0  0  0  0  0  0  0  0  0
   -3.7500  -11.6913    0.0000 C   0  0  0  0  0  0  0  0  0  0  0  0
   -1.5000  -10.3923    0.0000 C   0  0  0  0  0  0  0  0  0  0  0  0
   -0.7500   -9.0933    0.0000 C   0  0  0  0  0  0  0  0  0  0  0  0
    0.7500   -9.0933    0.0000 O   0  0  0  0  0  0  0  0  0  0  0  0
   -1.5000   -5.1962    0.0000 C   0  0  0  0  0  0  0  0  0  0  0  0
   -0.7500   -3.8971    0.0000 C   0  0  0  0  0  0  0  0  0  0  0  0
    0.7500   -3.8971    0.0000 C   0  0  0  0  0  0  0  0  0  0  0  0
    1.5000   -2.5981    0.0000 N   0  0  0  0  0  0  0  0  0  0  0  0
    0.7500   -1.2990    0.0000 C   0  0  0  0  0  0  0  0  0  0  0  0
    1.5000    0.0000    0.0000 N   0  0  0  0  0  0  0  0  0  0  0  0
    0.7500    1.2990    0.0000 C   0  0  0  0  0  0  0  0  0  0  0  0
   -0.7500    1.2990    0.0000 C   0  0  0  0  0  0  0  0  0  0  0  0
   -1.7537    2.4138    0.0000 C   0  0  0  0  0  0  0  0  0  0  0  0
   -3.1240    1.8037    0.0000 C   0  0  0  0  0  0  0  0  0  0  0  0
   -2.9672    0.3119    0.0000 C   0  0  0  0  0  0  0  0  0  0  0  0
   -4.0819   -0.6918    0.0000 C   0  0  0  0  0  0  0  0  0  0  0  0
   -5.5085   -0.2283    0.0000 C   0  0  0  0  0  0  0  0  0  0  0  0
   -6.6232   -1.2320    0.0000 C   0  0  0  0  0  0  0  0  0  0  0  0
   -6.3114   -2.6992    0.0000 C   0  0  0  0  0  0  0  0  0  0  0  0
   -4.8848   -3.1627    0.0000 C   0  0  0  0  0  0  0  0  0  0  0  0
   -3.7701   -2.1590    0.0000 C   0  0  0  0  0  0  0  0  0  0  0  0
   -2.3435   -2.6226    0.0000 O   0  0  0  0  0  0  0  0  0  0  0  0
   -2.0316   -4.0898    0.0000 C   0  0  0  0  0  0  0  0  0  0  0  0
   -1.5000    0.0000    0.0000 N   0  0  0  0  0  0  0  0  0  0  0  0
   -0.7500   -1.2990    0.0000 N   0  0  0  0  0  0  0  0  0  0  0  0
  1  2  1  0
  2  3  1  0
  3  4  2  0
  4  5  1  0
  5  6  1  0
  6  7  1  0
  7  8  1  0
  8  9  1  0
  9 10  1  0
  9 11  1  0
 11 12  1  0
 12 13  1  0
  5 14  2  0
 14 15  1  0
 15 16  2  0
 16 17  1  0
 17 18  1  0
 18 19  1  0
 19 20  2  0
 20 21  1  0
 21 22  2  0
 22 23  1  0
 23 24  2  0
 24 25  1  0
 25 26  2  0
 26 27  1  0
 27 28  2  0
 28 29  1  0
 29 30  2  0
 30 31  1  0
 31 32  1  0
 24 33  1  0
 33 34  1  0
 16  3  1  0
 34 18  2  0
 12  6  1  0
 33 21  1  0
 30 25  1  0
M  END
>  <Compound_ID>  (164) 
CHEMBL3398172

>  <Molecule Name>  (164) 
nan

>  <Molecular Weight>  (164) 
459.55

>  <AlogP>  (164) 
3.94

>  <Smiles>  (164) 
COc1cc(C2CCN(C)CC2O)ccc1Nc1ncc2ccc(-c3ccccc3OC)n2n1

>  <Standard Type>  (164) 
IC50

>  <Standard Relation>  (164) 
'='

>  <Standard Units>  (164) 
nM

>  <Standard Value>  (164) 
3.0

>  <Assay ChEMBL ID>  (164) 
CHEMBL3398705

>  <Assay Description>  (164) 
Inhibition of ALK (unknown origin) by enzymatic assay

>  <BAO Format ID>  (164) 
BAO_0000357

>  <BAO Label>  (164) 
single protein format

>  <Assay Organism>  (164) 
Homo sapiens

>  <Target ChEMBL ID>  (164) 
CHEMBL4247

>  <Target Name>  (164) 
ALK tyrosine kinase receptor

>  <Target Organism>  (164) 
Homo sapiens

>  <Target Type>  (164) 
SINGLE PROTEIN

>  <Document ChEMBL ID>  (164) 
CHEMBL3396997

>  <Source Description>  (164) 
Scientific Literature

>  <Document Journal>  (164) 
Bioorg Med Chem Lett

>  <Document Year>  (164) 
2015.0

>  <Active>  (164) 
1.0

>  <bits>  (164) 
<rdkit.DataStructs.cDataStructs.ExplicitBitVect object at 0x000002422C1BAB90>

>  <Group>  (164) 
G2

$$$$

     RDKit          2D

 31 33  0  0  0  0  0  0  0  0999 V2000
    3.7500   -1.2990    0.0000 C   0  0  0  0  0  0  0  0  0  0  0  0
    3.0000    0.0000    0.0000 O   0  0  0  0  0  0  0  0  0  0  0  0
    1.5000    0.0000    0.0000 C   0  0  0  0  0  0  0  0  0  0  0  0
    0.7500   -1.2990    0.0000 C   0  0  0  0  0  0  0  0  0  0  0  0
   -0.7500   -1.2990    0.0000 C   0  0  0  0  0  0  0  0  0  0  0  0
   -1.5000    0.0000    0.0000 C   0  0  0  0  0  0  0  0  0  0  0  0
   -3.0000    0.0000    0.0000 C   0  0  0  0  0  0  0  0  0  0  0  0
   -3.7500    1.2990    0.0000 N   0  0  0  0  0  0  0  0  0  0  0  0
   -5.2500    1.2990    0.0000 N   0  0  0  0  0  0  0  0  0  0  0  0
   -6.0000    2.5981    0.0000 C   0  0  0  0  0  0  0  0  0  0  0  0
   -5.2500    3.8971    0.0000 N   0  0  0  0  0  0  0  0  0  0  0  0
   -6.0000    5.1962    0.0000 C   0  0  0  0  0  0  0  0  0  0  0  0
   -7.5000    5.1962    0.0000 C   0  0  0  0  0  0  0  0  0  0  0  0
   -8.2500    6.4952    0.0000 Cl  0  0  0  0  0  0  0  0  0  0  0  0
   -8.2500    3.8971    0.0000 C   0  0  0  0  0  0  0  0  0  0  0  0
   -9.7500    3.8971    0.0000 N   0  0  0  0  0  0  0  0  0  0  0  0
  -10.5000    2.5981    0.0000 C   0  0  0  0  0  0  0  0  0  0  0  0
   -9.7500    1.2990    0.0000 C   0  0  0  0  0  0  0  0  0  0  0  0
  -10.5000    0.0000    0.0000 C   0  0  0  0  0  0  0  0  0  0  0  0
  -12.0000    0.0000    0.0000 C   0  0  0  0  0  0  0  0  0  0  0  0
  -12.7500    1.2990    0.0000 C   0  0  0  0  0  0  0  0  0  0  0  0
  -12.0000    2.5981    0.0000 C   0  0  0  0  0  0  0  0  0  0  0  0
  -12.7500    3.8971    0.0000 S   0  0  0  0  0  0  0  0  0  0  0  0
  -11.4510    4.6471    0.0000 O   0  0  0  0  0  0  0  0  0  0  0  0
  -14.0490    3.1471    0.0000 O   0  0  0  0  0  0  0  0  0  0  0  0
  -13.5000    5.1962    0.0000 C   0  0  0  0  0  0  0  0  0  0  0  0
  -15.0000    5.1962    0.0000 C   0  0  0  0  0  0  0  0  0  0  0  0
  -12.7500    6.4952    0.0000 C   0  0  0  0  0  0  0  0  0  0  0  0
   -7.5000    2.5981    0.0000 N   0  0  0  0  0  0  0  0  0  0  0  0
   -0.7500    1.2990    0.0000 C   0  0  0  0  0  0  0  0  0  0  0  0
    0.7500    1.2990    0.0000 C   0  0  0  0  0  0  0  0  0  0  0  0
  1  2  1  0
  2  3  1  0
  3  4  2  0
  4  5  1  0
  5  6  2  0
  6  7  1  0
  7  8  2  0
  8  9  1  0
  9 10  1  0
 10 11  2  0
 11 12  1  0
 12 13  2  0
 13 14  1  0
 13 15  1  0
 15 16  1  0
 16 17  1  0
 17 18  2  0
 18 19  1  0
 19 20  2  0
 20 21  1  0
 21 22  2  0
 22 23  1  0
 23 24  2  0
 23 25  2  0
 23 26  1  0
 26 27  1  0
 26 28  1  0
 15 29  2  0
  6 30  1  0
 30 31  2  0
 31  3  1  0
 29 10  1  0
 22 17  1  0
M  END
>  <Compound_ID>  (165) 
CHEMBL3894726

>  <Molecule Name>  (165) 
nan

>  <Molecular Weight>  (165) 
459.96

>  <AlogP>  (165) 
4.51

>  <Smiles>  (165) 
COc1ccc(/C=N/Nc2ncc(Cl)c(Nc3ccccc3S(=O)(=O)C(C)C)n2)cc1

>  <Standard Type>  (165) 
IC50

>  <Standard Relation>  (165) 
'='

>  <Standard Units>  (165) 
nM

>  <Standard Value>  (165) 
4.8

>  <Assay ChEMBL ID>  (165) 
CHEMBL3870414

>  <Assay Description>  (165) 
Inhibition of ALK (unknown origin) using peptide as substrate after 60 mins by HTRF assay

>  <BAO Format ID>  (165) 
BAO_0000357

>  <BAO Label>  (165) 
single protein format

>  <Assay Organism>  (165) 
Homo sapiens

>  <Target ChEMBL ID>  (165) 
CHEMBL4247

>  <Target Name>  (165) 
ALK tyrosine kinase receptor

>  <Target Organism>  (165) 
Homo sapiens

>  <Target Type>  (165) 
SINGLE PROTEIN

>  <Document ChEMBL ID>  (165) 
CHEMBL3870304

>  <Source Description>  (165) 
Scientific Literature

>  <Document Journal>  (165) 
Eur J Med Chem

>  <Document Year>  (165) 
2016.0

>  <Active>  (165) 
1.0

>  <bits>  (165) 
<rdkit.DataStructs.cDataStructs.ExplicitBitVect object at 0x000002422C1BB300>

>  <Group>  (165) 
G2

$$$$

     RDKit          2D

 34 36  0  0  0  0  0  0  0  0999 V2000
   -3.7500    3.8971    0.0000 C   0  0  0  0  0  0  0  0  0  0  0  0
   -2.2500    3.8971    0.0000 C   0  0  0  0  0  0  0  0  0  0  0  0
   -1.5000    5.1962    0.0000 C   0  0  0  0  0  0  0  0  0  0  0  0
   -1.5000    2.5981    0.0000 S   0  0  0  0  0  0  0  0  0  0  0  0
   -0.2010    3.3481    0.0000 O   0  0  0  0  0  0  0  0  0  0  0  0
   -2.7990    1.8481    0.0000 O   0  0  0  0  0  0  0  0  0  0  0  0
   -0.7500    1.2990    0.0000 C   0  0  0  0  0  0  0  0  0  0  0  0
   -1.5000   -0.0000    0.0000 C   0  0  0  0  0  0  0  0  0  0  0  0
   -0.7500   -1.2990    0.0000 C   0  0  0  0  0  0  0  0  0  0  0  0
    0.7500   -1.2990    0.0000 C   0  0  0  0  0  0  0  0  0  0  0  0
    1.5000   -0.0000    0.0000 C   0  0  0  0  0  0  0  0  0  0  0  0
    0.7500    1.2990    0.0000 C   0  0  0  0  0  0  0  0  0  0  0  0
    1.5000    2.5981    0.0000 N   0  0  0  0  0  0  0  0  0  0  0  0
    3.0000    2.5981    0.0000 C   0  0  0  0  0  0  0  0  0  0  0  0
    3.7500    1.2990    0.0000 N   0  0  0  0  0  0  0  0  0  0  0  0
    5.2500    1.2990    0.0000 C   0  0  0  0  0  0  0  0  0  0  0  0
    6.0000   -0.0000    0.0000 N   0  0  0  0  0  0  0  0  0  0  0  0
    7.5000   -0.0000    0.0000 C   0  0  0  0  0  0  0  0  0  0  0  0
    8.2500   -1.2990    0.0000 C   0  0  0  0  0  0  0  0  0  0  0  0
    9.7500   -1.2990    0.0000 C   0  0  0  0  0  0  0  0  0  0  0  0
   10.5000   -0.0000    0.0000 C   0  0  0  0  0  0  0  0  0  0  0  0
    9.7500    1.2990    0.0000 C   0  0  0  0  0  0  0  0  0  0  0  0
   10.5000    2.5981    0.0000 N   0  0  0  0  0  0  0  0  0  0  0  0
   12.0000    2.5981    0.0000 C   0  0  0  0  0  0  0  0  0  0  0  0
   12.7500    1.2990    0.0000 O   0  0  0  0  0  0  0  0  0  0  0  0
   12.7500    3.8971    0.0000 C   0  0  0  0  0  0  0  0  0  0  0  0
   14.2500    3.8971    0.0000 C   0  0  0  0  0  0  0  0  0  0  0  0
   15.0000    5.1962    0.0000 C   0  0  0  0  0  0  0  0  0  0  0  0
   16.5000    5.1962    0.0000 N   0  0  0  0  0  0  0  0  0  0  0  0
    8.2500    1.2990    0.0000 C   0  0  0  0  0  0  0  0  0  0  0  0
    6.0000    2.5981    0.0000 N   0  0  0  0  0  0  0  0  0  0  0  0
    5.2500    3.8971    0.0000 C   0  0  0  0  0  0  0  0  0  0  0  0
    3.7500    3.8971    0.0000 C   0  0  0  0  0  0  0  0  0  0  0  0
    3.0000    5.1962    0.0000 Cl  0  0  0  0  0  0  0  0  0  0  0  0
  1  2  1  0
  2  3  1  0
  2  4  1  0
  4  5  2  0
  4  6  2  0
  4  7  1  0
  7  8  2  0
  8  9  1  0
  9 10  2  0
 10 11  1  0
 11 12  2  0
 12 13  1  0
 13 14  1  0
 14 15  2  0
 15 16  1  0
 16 17  1  0
 17 18  1  0
 18 19  2  0
 19 20  1  0
 20 21  2  0
 21 22  1  0
 22 23  1  0
 23 24  1  0
 24 25  2  0
 24 26  1  0
 26 27  1  0
 27 28  1  0
 28 29  1  0
 22 30  2  0
 16 31  2  0
 31 32  1  0
 32 33  2  0
 33 34  1  0
 12  7  1  0
 33 14  1  0
 30 18  1  0
M  END
>  <Compound_ID>  (166) 
CHEMBL3357450

>  <Molecule Name>  (166) 
nan

>  <Molecular Weight>  (166) 
503.03

>  <AlogP>  (166) 
4.48

>  <Smiles>  (166) 
CC(C)S(=O)(=O)c1ccccc1Nc1nc(Nc2cccc(NC(=O)CCCN)c2)ncc1Cl

>  <Standard Type>  (166) 
IC50

>  <Standard Relation>  (166) 
'='

>  <Standard Units>  (166) 
nM

>  <Standard Value>  (166) 
19.1

>  <Assay ChEMBL ID>  (166) 
CHEMBL3364272

>  <Assay Description>  (166) 
Inhibition of ALK (unknown origin) after 60 mins by ELISA

>  <BAO Format ID>  (166) 
BAO_0000357

>  <BAO Label>  (166) 
single protein format

>  <Assay Organism>  (166) 
Homo sapiens

>  <Target ChEMBL ID>  (166) 
CHEMBL4247

>  <Target Name>  (166) 
ALK tyrosine kinase receptor

>  <Target Organism>  (166) 
Homo sapiens

>  <Target Type>  (166) 
SINGLE PROTEIN

>  <Document ChEMBL ID>  (166) 
CHEMBL3351234

>  <Source Description>  (166) 
Scientific Literature

>  <Document Journal>  (166) 
J Med Chem

>  <Document Year>  (166) 
2015.0

>  <Active>  (166) 
1.0

>  <bits>  (166) 
<rdkit.DataStructs.cDataStructs.ExplicitBitVect object at 0x000002422C1BA2D0>

>  <Group>  (166) 
G2

$$$$

     RDKit          2D

 33 36  0  0  0  0  0  0  0  0999 V2000
    5.2500   -9.0933    0.0000 C   0  0  0  0  0  0  0  0  0  0  0  0
    4.5000  -10.3923    0.0000 N   0  0  0  0  0  0  0  0  0  0  0  0
    3.0000  -10.3923    0.0000 S   0  0  0  0  0  0  0  0  0  0  0  0
    3.0000  -11.8923    0.0000 O   0  0  0  0  0  0  0  0  0  0  0  0
    3.0000   -8.8923    0.0000 O   0  0  0  0  0  0  0  0  0  0  0  0
    1.5000  -10.3923    0.0000 C   0  0  0  0  0  0  0  0  0  0  0  0
    0.7500  -11.6913    0.0000 C   0  0  0  0  0  0  0  0  0  0  0  0
   -0.7500  -11.6913    0.0000 C   0  0  0  0  0  0  0  0  0  0  0  0
   -1.5000  -10.3923    0.0000 C   0  0  0  0  0  0  0  0  0  0  0  0
   -0.7500   -9.0933    0.0000 C   0  0  0  0  0  0  0  0  0  0  0  0
    0.7500   -9.0933    0.0000 C   0  0  0  0  0  0  0  0  0  0  0  0
    1.5000   -7.7942    0.0000 N   0  0  0  0  0  0  0  0  0  0  0  0
    0.7500   -6.4952    0.0000 C   0  0  0  0  0  0  0  0  0  0  0  0
    1.5000   -5.1962    0.0000 N   0  0  0  0  0  0  0  0  0  0  0  0
    0.7500   -3.8971    0.0000 C   0  0  0  0  0  0  0  0  0  0  0  0
    1.5000   -2.5981    0.0000 N   0  0  0  0  0  0  0  0  0  0  0  0
    0.7500   -1.2990    0.0000 C   0  0  0  0  0  0  0  0  0  0  0  0
    1.5000    0.0000    0.0000 C   0  0  0  0  0  0  0  0  0  0  0  0
    0.7500    1.2990    0.0000 C   0  0  0  0  0  0  0  0  0  0  0  0
   -0.7500    1.2990    0.0000 C   0  0  0  0  0  0  0  0  0  0  0  0
   -1.5000    0.0000    0.0000 C   0  0  0  0  0  0  0  0  0  0  0  0
   -0.7500   -1.2990    0.0000 C   0  0  0  0  0  0  0  0  0  0  0  0
   -2.9832   -0.2236    0.0000 C   0  0  0  0  0  0  0  0  0  0  0  0
   -3.4254   -1.6569    0.0000 C   0  0  0  0  0  0  0  0  0  0  0  0
   -4.0828    0.7967    0.0000 C   0  0  0  0  0  0  0  0  0  0  0  0
   -3.9707    2.2925    0.0000 N   0  0  0  0  0  0  0  0  0  0  0  0
   -5.2698    3.0425    0.0000 C   0  0  0  0  0  0  0  0  0  0  0  0
   -2.7314    3.1375    0.0000 C   0  0  0  0  0  0  0  0  0  0  0  0
   -1.2980    2.6953    0.0000 C   0  0  0  0  0  0  0  0  0  0  0  0
   -0.7500   -3.8971    0.0000 N   0  0  0  0  0  0  0  0  0  0  0  0
   -1.5000   -5.1962    0.0000 C   0  0  0  0  0  0  0  0  0  0  0  0
   -0.7500   -6.4952    0.0000 C   0  0  0  0  0  0  0  0  0  0  0  0
   -1.5000   -7.7942    0.0000 Cl  0  0  0  0  0  0  0  0  0  0  0  0
  1  2  1  0
  2  3  1  0
  3  4  2  0
  3  5  2  0
  3  6  1  0
  6  7  2  0
  7  8  1  0
  8  9  2  0
  9 10  1  0
 10 11  2  0
 11 12  1  0
 12 13  1  0
 13 14  2  0
 14 15  1  0
 15 16  1  0
 16 17  1  0
 17 18  2  0
 18 19  1  0
 19 20  2  0
 20 21  1  0
 21 22  2  0
 21 23  1  0
 23 24  1  0
 23 25  1  0
 25 26  1  0
 26 27  1  0
 26 28  1  0
 28 29  1  0
 15 30  2  0
 30 31  1  0
 31 32  2  0
 32 33  1  0
 11  6  1  0
 32 13  1  0
 22 17  1  0
 29 20  1  0
M  END
>  <Compound_ID>  (167) 
CHEMBL3263992

>  <Molecule Name>  (167) 
nan

>  <Molecular Weight>  (167) 
487.03

>  <AlogP>  (167) 
4.12

>  <Smiles>  (167) 
CNS(=O)(=O)c1ccccc1Nc1nc(Nc2ccc3c(c2)C(C)CN(C)CC3)ncc1Cl

>  <Standard Type>  (167) 
IC50

>  <Standard Relation>  (167) 
'='

>  <Standard Units>  (167) 
nM

>  <Standard Value>  (167) 
1.3

>  <Assay ChEMBL ID>  (167) 
CHEMBL3267806

>  <Assay Description>  (167) 
Inhibition of purified recombinant ALK (unknown origin) after 60 mins by ELISA

>  <BAO Format ID>  (167) 
BAO_0000357

>  <BAO Label>  (167) 
single protein format

>  <Assay Organism>  (167) 
Homo sapiens

>  <Target ChEMBL ID>  (167) 
CHEMBL4247

>  <Target Name>  (167) 
ALK tyrosine kinase receptor

>  <Target Organism>  (167) 
Homo sapiens

>  <Target Type>  (167) 
SINGLE PROTEIN

>  <Document ChEMBL ID>  (167) 
CHEMBL3259567

>  <Source Description>  (167) 
Scientific Literature

>  <Document Journal>  (167) 
ACS Med Chem Lett

>  <Document Year>  (167) 
2014.0

>  <Active>  (167) 
1.0

>  <bits>  (167) 
<rdkit.DataStructs.cDataStructs.ExplicitBitVect object at 0x000002422C1B9F50>

>  <Group>  (167) 
G2

$$$$

     RDKit          2D

 36 41  0  0  0  0  0  0  0  0999 V2000
   -6.8516   -6.6578    0.0000 C   0  0  0  0  0  0  0  0  0  0  0  0
   -5.6381   -7.5395    0.0000 C   0  0  0  0  0  0  0  0  0  0  0  0
   -4.2677   -6.9294    0.0000 C   0  0  0  0  0  0  0  0  0  0  0  0
   -4.1110   -5.4376    0.0000 C   0  0  0  0  0  0  0  0  0  0  0  0
   -2.7406   -4.8275    0.0000 C   0  0  0  0  0  0  0  0  0  0  0  0
   -1.5271   -5.7092    0.0000 C   0  0  0  0  0  0  0  0  0  0  0  0
   -1.6839   -7.2010    0.0000 C   0  0  0  0  0  0  0  0  0  0  0  0
   -3.0542   -7.8111    0.0000 C   0  0  0  0  0  0  0  0  0  0  0  0
   -3.2110   -9.3029    0.0000 C   0  0  0  0  0  0  0  0  0  0  0  0
   -4.5813   -9.9130    0.0000 C   0  0  0  0  0  0  0  0  0  0  0  0
   -4.7381  -11.4047    0.0000 C   0  0  0  0  0  0  0  0  0  0  0  0
   -3.5246  -12.2864    0.0000 N   0  0  0  0  0  0  0  0  0  0  0  0
   -3.6814  -13.7782    0.0000 C   0  0  0  0  0  0  0  0  0  0  0  0
   -2.4679  -14.6599    0.0000 O   0  0  0  0  0  0  0  0  0  0  0  0
   -5.0517  -14.3883    0.0000 C   0  0  0  0  0  0  0  0  0  0  0  0
   -6.4521  -13.8508    0.0000 C   0  0  0  0  0  0  0  0  0  0  0  0
   -6.9896  -15.2511    0.0000 N   0  0  0  0  0  0  0  0  0  0  0  0
   -5.5893  -15.7887    0.0000 C   0  0  0  0  0  0  0  0  0  0  0  0
   -2.1543  -11.6763    0.0000 C   0  0  0  0  0  0  0  0  0  0  0  0
   -1.9975  -10.1845    0.0000 C   0  0  0  0  0  0  0  0  0  0  0  0
   -0.1568   -5.0991    0.0000 C   0  0  0  0  0  0  0  0  0  0  0  0
    1.3396   -4.9944    0.0000 C   0  0  0  0  0  0  0  0  0  0  0  0
    0.2061   -6.5545    0.0000 C   0  0  0  0  0  0  0  0  0  0  0  0
   -0.0000   -3.6073    0.0000 C   0  0  0  0  0  0  0  0  0  0  0  0
    1.2135   -2.7256    0.0000 N   0  0  0  0  0  0  0  0  0  0  0  0
    0.7500   -1.2990    0.0000 C   0  0  0  0  0  0  0  0  0  0  0  0
    1.5000    0.0000    0.0000 C   0  0  0  0  0  0  0  0  0  0  0  0
    0.7500    1.2990    0.0000 C   0  0  0  0  0  0  0  0  0  0  0  0
    1.5000    2.5981    0.0000 C   0  0  0  0  0  0  0  0  0  0  0  0
    2.2500    3.8971    0.0000 N   0  0  0  0  0  0  0  0  0  0  0  0
   -0.7500    1.2990    0.0000 C   0  0  0  0  0  0  0  0  0  0  0  0
   -1.5000    0.0000    0.0000 C   0  0  0  0  0  0  0  0  0  0  0  0
   -0.7500   -1.2990    0.0000 C   0  0  0  0  0  0  0  0  0  0  0  0
   -1.2135   -2.7256    0.0000 C   0  0  0  0  0  0  0  0  0  0  0  0
   -2.5838   -3.3357    0.0000 C   0  0  0  0  0  0  0  0  0  0  0  0
   -3.7974   -2.4540    0.0000 O   0  0  0  0  0  0  0  0  0  0  0  0
  1  2  1  0
  2  3  1  0
  3  4  2  0
  4  5  1  0
  5  6  2  0
  6  7  1  0
  7  8  2  0
  8  9  1  0
  9 10  2  0
 10 11  1  0
 11 12  1  0
 12 13  1  0
 13 14  2  0
 13 15  1  0
 15 16  1  0
 16 17  1  0
 17 18  1  0
 12 19  1  0
 19 20  1  0
  6 21  1  0
 21 22  1  0
 21 23  1  0
 21 24  1  0
 24 25  1  0
 25 26  1  0
 26 27  2  0
 27 28  1  0
 28 29  1  0
 29 30  3  0
 28 31  2  0
 31 32  1  0
 32 33  2  0
 33 34  1  0
 34 35  1  0
 35 36  2  0
  8  3  1  0
 20  9  1  0
 34 24  2  0
 35  5  1  0
 18 15  1  0
 33 26  1  0
M  END
>  <Compound_ID>  (168) 
CHEMBL3736182

>  <Molecule Name>  (168) 
nan

>  <Molecular Weight>  (168) 
478.6

>  <AlogP>  (168) 
4.31

>  <Smiles>  (168) 
CCc1cc2c(cc1C1=CCN(C(=O)C3CNC3)CC1)C(C)(C)c1[nH]c3cc(C#N)ccc3c1C2=O

>  <Standard Type>  (168) 
IC50

>  <Standard Relation>  (168) 
'='

>  <Standard Units>  (168) 
nM

>  <Standard Value>  (168) 
1.0

>  <Assay ChEMBL ID>  (168) 
CHEMBL3738493

>  <Assay Description>  (168) 
Inhibition of recombinant ALK (unknown origin) using poly (Glu, Tyr)4:1 substrate incubated for 60 mins by ELISA

>  <BAO Format ID>  (168) 
BAO_0000357

>  <BAO Label>  (168) 
single protein format

>  <Assay Organism>  (168) 
Homo sapiens

>  <Target ChEMBL ID>  (168) 
CHEMBL4247

>  <Target Name>  (168) 
ALK tyrosine kinase receptor

>  <Target Organism>  (168) 
Homo sapiens

>  <Target Type>  (168) 
SINGLE PROTEIN

>  <Document ChEMBL ID>  (168) 
CHEMBL3734710

>  <Source Description>  (168) 
Scientific Literature

>  <Document Journal>  (168) 
Eur J Med Chem

>  <Document Year>  (168) 
2015.0

>  <Active>  (168) 
1.0

>  <bits>  (168) 
<rdkit.DataStructs.cDataStructs.ExplicitBitVect object at 0x000002422C1BA570>

>  <Group>  (168) 
G2

$$$$

     RDKit          2D

 38 43  0  0  0  0  0  0  0  0999 V2000
    3.7500   -6.4952    0.0000 C   0  0  0  0  0  0  0  0  0  0  0  0
    3.0000   -5.1962    0.0000 O   0  0  0  0  0  0  0  0  0  0  0  0
    1.5000   -5.1962    0.0000 C   0  0  0  0  0  0  0  0  0  0  0  0
    0.7500   -6.4952    0.0000 C   0  0  0  0  0  0  0  0  0  0  0  0
   -0.7500   -6.4952    0.0000 C   0  0  0  0  0  0  0  0  0  0  0  0
   -1.5000   -7.7942    0.0000 N   0  0  0  0  0  0  0  0  0  0  0  0
   -3.0000   -7.7942    0.0000 C   0  0  0  0  0  0  0  0  0  0  0  0
   -3.7500   -9.0933    0.0000 C   0  0  0  0  0  0  0  0  0  0  0  0
   -3.0000  -10.3923    0.0000 N   0  0  0  0  0  0  0  0  0  0  0  0
   -3.7500  -11.6913    0.0000 N   0  0  0  0  0  0  0  0  0  0  0  0
   -5.2500  -11.6913    0.0000 C   0  0  0  0  0  0  0  0  0  0  0  0
   -6.0000  -12.9904    0.0000 C   0  0  0  0  0  0  0  0  0  0  0  0
   -5.2500  -14.2894    0.0000 O   0  0  0  0  0  0  0  0  0  0  0  0
   -3.7500  -14.2894    0.0000 C   0  0  0  0  0  0  0  0  0  0  0  0
   -3.0000  -12.9904    0.0000 C   0  0  0  0  0  0  0  0  0  0  0  0
   -1.5000  -10.3923    0.0000 C   0  0  0  0  0  0  0  0  0  0  0  0
   -0.7500   -9.0933    0.0000 C   0  0  0  0  0  0  0  0  0  0  0  0
   -1.5000   -5.1962    0.0000 C   0  0  0  0  0  0  0  0  0  0  0  0
   -0.7500   -3.8971    0.0000 C   0  0  0  0  0  0  0  0  0  0  0  0
    0.7500   -3.8971    0.0000 C   0  0  0  0  0  0  0  0  0  0  0  0
    1.5000   -2.5981    0.0000 N   0  0  0  0  0  0  0  0  0  0  0  0
    0.7500   -1.2990    0.0000 C   0  0  0  0  0  0  0  0  0  0  0  0
    1.5000    0.0000    0.0000 N   0  0  0  0  0  0  0  0  0  0  0  0
    0.7500    1.2990    0.0000 C   0  0  0  0  0  0  0  0  0  0  0  0
   -0.7500    1.2990    0.0000 C   0  0  0  0  0  0  0  0  0  0  0  0
   -1.7537    2.4138    0.0000 C   0  0  0  0  0  0  0  0  0  0  0  0
   -3.1240    1.8037    0.0000 C   0  0  0  0  0  0  0  0  0  0  0  0
   -2.9672    0.3119    0.0000 C   0  0  0  0  0  0  0  0  0  0  0  0
   -4.0819   -0.6918    0.0000 C   0  0  0  0  0  0  0  0  0  0  0  0
   -5.5085   -0.2283    0.0000 C   0  0  0  0  0  0  0  0  0  0  0  0
   -6.6232   -1.2320    0.0000 C   0  0  0  0  0  0  0  0  0  0  0  0
   -6.3114   -2.6992    0.0000 C   0  0  0  0  0  0  0  0  0  0  0  0
   -4.8848   -3.1627    0.0000 C   0  0  0  0  0  0  0  0  0  0  0  0
   -3.7701   -2.1590    0.0000 C   0  0  0  0  0  0  0  0  0  0  0  0
   -2.3435   -2.6226    0.0000 O   0  0  0  0  0  0  0  0  0  0  0  0
   -2.0316   -4.0898    0.0000 C   0  0  0  0  0  0  0  0  0  0  0  0
   -1.5000    0.0000    0.0000 N   0  0  0  0  0  0  0  0  0  0  0  0
   -0.7500   -1.2990    0.0000 N   0  0  0  0  0  0  0  0  0  0  0  0
  1  2  1  0
  2  3  1  0
  3  4  2  0
  4  5  1  0
  5  6  1  0
  6  7  1  0
  7  8  1  0
  8  9  1  0
  9 10  1  0
 10 11  1  0
 11 12  1  0
 12 13  1  0
 13 14  1  0
 14 15  1  0
  9 16  1  0
 16 17  1  0
  5 18  2  0
 18 19  1  0
 19 20  2  0
 20 21  1  0
 21 22  1  0
 22 23  1  0
 23 24  2  0
 24 25  1  0
 25 26  2  0
 26 27  1  0
 27 28  2  0
 28 29  1  0
 29 30  2  0
 30 31  1  0
 31 32  2  0
 32 33  1  0
 33 34  2  0
 34 35  1  0
 35 36  1  0
 28 37  1  0
 37 38  1  0
 20  3  1  0
 38 22  2  0
 17  6  1  0
 37 25  1  0
 15 10  1  0
 34 29  1  0
M  END
>  <Compound_ID>  (169) 
CHEMBL1822522

>  <Molecule Name>  (169) 
nan

>  <Molecular Weight>  (169) 
515.62

>  <AlogP>  (169) 
3.53

>  <Smiles>  (169) 
COc1cc(N2CCN(N3CCOCC3)CC2)ccc1Nc1ncc2ccc(-c3ccccc3OC)n2n1

>  <Standard Type>  (169) 
IC50

>  <Standard Relation>  (169) 
'='

>  <Standard Units>  (169) 
nM

>  <Standard Value>  (169) 
9.0

>  <Assay ChEMBL ID>  (169) 
CHEMBL1825977

>  <Assay Description>  (169) 
Inhibition of human recombinant ALK assessed as phosphorylated product using PLC-gamma/GST substrate by modified ELISA method

>  <BAO Format ID>  (169) 
BAO_0000357

>  <BAO Label>  (169) 
single protein format

>  <Assay Organism>  (169) 
Homo sapiens

>  <Target ChEMBL ID>  (169) 
CHEMBL4247

>  <Target Name>  (169) 
ALK tyrosine kinase receptor

>  <Target Organism>  (169) 
Homo sapiens

>  <Target Type>  (169) 
SINGLE PROTEIN

>  <Document ChEMBL ID>  (169) 
CHEMBL1821719

>  <Source Description>  (169) 
Scientific Literature

>  <Document Journal>  (169) 
J Med Chem

>  <Document Year>  (169) 
2011.0

>  <Active>  (169) 
1.0

>  <bits>  (169) 
<rdkit.DataStructs.cDataStructs.ExplicitBitVect object at 0x000002422C1BBA70>

>  <Group>  (169) 
G2

$$$$

     RDKit          2D

 32 36  0  0  0  0  0  0  0  0999 V2000
    2.6491   -3.5623    0.0000 C   0  0  0  0  0  0  0  0  0  0  0  0
    1.5000   -2.5981    0.0000 C   0  0  0  0  0  0  0  0  0  0  0  0
    2.6491   -1.6339    0.0000 C   0  0  0  0  0  0  0  0  0  0  0  0
    0.7500   -1.2990    0.0000 C   0  0  0  0  0  0  0  0  0  0  0  0
    1.5000    0.0000    0.0000 C   0  0  0  0  0  0  0  0  0  0  0  0
    0.7500    1.2990    0.0000 C   0  0  0  0  0  0  0  0  0  0  0  0
    1.5000    2.5981    0.0000 O   0  0  0  0  0  0  0  0  0  0  0  0
    3.0000    2.5981    0.0000 C   0  0  0  0  0  0  0  0  0  0  0  0
    3.7500    3.8971    0.0000 C   0  0  0  0  0  0  0  0  0  0  0  0
    3.0000    5.1962    0.0000 O   0  0  0  0  0  0  0  0  0  0  0  0
    5.2500    3.8971    0.0000 N   0  0  0  0  0  0  0  0  0  0  0  0
    6.0000    2.5981    0.0000 C   0  0  0  0  0  0  0  0  0  0  0  0
    7.5000    2.5981    0.0000 C   0  0  0  0  0  0  0  0  0  0  0  0
    8.2500    3.8971    0.0000 N   0  0  0  0  0  0  0  0  0  0  0  0
    7.5000    5.1962    0.0000 C   0  0  0  0  0  0  0  0  0  0  0  0
    6.0000    5.1962    0.0000 C   0  0  0  0  0  0  0  0  0  0  0  0
   -0.7500    1.2990    0.0000 C   0  0  0  0  0  0  0  0  0  0  0  0
   -1.5000    0.0000    0.0000 C   0  0  0  0  0  0  0  0  0  0  0  0
   -0.7500   -1.2990    0.0000 C   0  0  0  0  0  0  0  0  0  0  0  0
   -1.5000   -2.5981    0.0000 C   0  0  0  0  0  0  0  0  0  0  0  0
   -3.0000   -2.5981    0.0000 O   0  0  0  0  0  0  0  0  0  0  0  0
   -0.7500   -3.8971    0.0000 C   0  0  0  0  0  0  0  0  0  0  0  0
    0.7500   -3.8971    0.0000 C   0  0  0  0  0  0  0  0  0  0  0  0
    1.2135   -5.3237    0.0000 N   0  0  0  0  0  0  0  0  0  0  0  0
    0.0000   -6.2054    0.0000 C   0  0  0  0  0  0  0  0  0  0  0  0
   -0.1568   -7.6972    0.0000 C   0  0  0  0  0  0  0  0  0  0  0  0
   -1.5271   -8.3073    0.0000 C   0  0  0  0  0  0  0  0  0  0  0  0
   -1.6839   -9.7990    0.0000 C   0  0  0  0  0  0  0  0  0  0  0  0
   -1.8407  -11.2908    0.0000 N   0  0  0  0  0  0  0  0  0  0  0  0
   -2.7406   -7.4256    0.0000 C   0  0  0  0  0  0  0  0  0  0  0  0
   -2.5838   -5.9338    0.0000 C   0  0  0  0  0  0  0  0  0  0  0  0
   -1.2135   -5.3237    0.0000 C   0  0  0  0  0  0  0  0  0  0  0  0
  1  2  1  0
  2  3  1  0
  2  4  1  0
  4  5  2  0
  5  6  1  0
  6  7  1  0
  7  8  1  0
  8  9  1  0
  9 10  2  0
  9 11  1  0
 11 12  1  0
 12 13  1  0
 13 14  1  0
 14 15  1  0
 15 16  1  0
  6 17  2  0
 17 18  1  0
 18 19  2  0
 19 20  1  0
 20 21  2  0
 20 22  1  0
 22 23  2  0
 23 24  1  0
 24 25  1  0
 25 26  2  0
 26 27  1  0
 27 28  1  0
 28 29  3  0
 27 30  2  0
 30 31  1  0
 31 32  2  0
 23  2  1  0
 32 25  1  0
 19  4  1  0
 32 22  1  0
 16 11  1  0
M  END
>  <Compound_ID>  (170) 
CHEMBL3963168

>  <Molecule Name>  (170) 
nan

>  <Molecular Weight>  (170) 
428.49

>  <AlogP>  (170) 
2.72

>  <Smiles>  (170) 
CC1(C)c2cc(OCC(=O)N3CCNCC3)ccc2C(=O)c2c1[nH]c1cc(C#N)ccc21

>  <Standard Type>  (170) 
IC50

>  <Standard Relation>  (170) 
'='

>  <Standard Units>  (170) 
nM

>  <Standard Value>  (170) 
3.5

>  <Assay ChEMBL ID>  (170) 
CHEMBL3887074

>  <Assay Description>  (170) 
Inhibition Assay: ALK-inhibiting activity was measured by following an activity of inhibiting phosphorylation by biotinylated peptide (EGPWLEEEEEAYGWMDF). For the detection of phosphorylation of the biotinylated peptide, time-resolved fluorescence measurement was performed using an anti-phosphorylated tyrosine antibody labeled with europium cryptate and streptavidin conjugated to XL665, i.e., an allophycocyanin derivative.

>  <BAO Format ID>  (170) 
BAO_0000357

>  <BAO Label>  (170) 
single protein format

>  <Assay Organism>  (170) 
Homo sapiens

>  <Target ChEMBL ID>  (170) 
CHEMBL4247

>  <Target Name>  (170) 
ALK tyrosine kinase receptor

>  <Target Organism>  (170) 
Homo sapiens

>  <Target Type>  (170) 
SINGLE PROTEIN

>  <Document ChEMBL ID>  (170) 
CHEMBL3886150

>  <Source Description>  (170) 
BindingDB Database

>  <Document Journal>  (170) 
nan

>  <Document Year>  (170) 
2015.0

>  <Active>  (170) 
1.0

>  <bits>  (170) 
<rdkit.DataStructs.cDataStructs.ExplicitBitVect object at 0x000002422C1BB7D0>

>  <Group>  (170) 
G2

$$$$

     RDKit          2D

 35 38  0  0  0  0  0  0  0  0999 V2000
    6.2286   -2.5981    0.0000 C   0  0  0  0  0  0  0  0  0  0  0  0
    5.4786   -1.2990    0.0000 O   0  0  0  0  0  0  0  0  0  0  0  0
    3.9786   -1.2990    0.0000 C   0  0  0  0  0  0  0  0  0  0  0  0
    3.2286   -0.0000    0.0000 C   0  0  0  0  0  0  0  0  0  0  0  0
    1.7286    0.0000    0.0000 N   0  0  0  0  0  0  0  0  0  0  0  0
    1.0777    1.3515    0.0000 C   0  0  0  0  0  0  0  0  0  0  0  0
   -0.3846    1.6852    0.0000 C   0  0  0  0  0  0  0  0  0  0  0  0
   -1.5574    0.7500    0.0000 C   0  0  0  0  0  0  0  0  0  0  0  0
   -2.8564    1.5000    0.0000 C   0  0  0  0  0  0  0  0  0  0  0  0
   -4.1555    0.7500    0.0000 C   0  0  0  0  0  0  0  0  0  0  0  0
   -4.1555   -0.7500    0.0000 C   0  0  0  0  0  0  0  0  0  0  0  0
   -5.4545   -1.5000    0.0000 N   0  0  0  0  0  0  0  0  0  0  0  0
   -6.7535   -0.7500    0.0000 C   0  0  0  0  0  0  0  0  0  0  0  0
   -6.7535    0.7500    0.0000 N   0  0  0  0  0  0  0  0  0  0  0  0
   -8.0526    1.5000    0.0000 C   0  0  0  0  0  0  0  0  0  0  0  0
   -9.3516    0.7500    0.0000 C   0  0  0  0  0  0  0  0  0  0  0  0
  -10.6507    1.5000    0.0000 Cl  0  0  0  0  0  0  0  0  0  0  0  0
   -9.3516   -0.7500    0.0000 C   0  0  0  0  0  0  0  0  0  0  0  0
  -10.6507   -1.5000    0.0000 N   0  0  0  0  0  0  0  0  0  0  0  0
  -10.6507   -3.0000    0.0000 C   0  0  0  0  0  0  0  0  0  0  0  0
  -11.9497   -3.7500    0.0000 C   0  0  0  0  0  0  0  0  0  0  0  0
  -11.9497   -5.2500    0.0000 C   0  0  0  0  0  0  0  0  0  0  0  0
  -10.6507   -6.0000    0.0000 C   0  0  0  0  0  0  0  0  0  0  0  0
  -10.6507   -7.5000    0.0000 N   0  0  0  0  0  0  0  0  0  0  0  0
  -11.9497   -8.2500    0.0000 S   0  0  0  0  0  0  0  0  0  0  0  0
  -13.2487   -9.0000    0.0000 C   0  0  0  0  0  0  0  0  0  0  0  0
  -12.6997   -6.9510    0.0000 O   0  0  0  0  0  0  0  0  0  0  0  0
  -11.1997   -9.5490    0.0000 O   0  0  0  0  0  0  0  0  0  0  0  0
   -9.3516   -5.2500    0.0000 C   0  0  0  0  0  0  0  0  0  0  0  0
   -9.3516   -3.7500    0.0000 C   0  0  0  0  0  0  0  0  0  0  0  0
   -8.0526   -1.5000    0.0000 N   0  0  0  0  0  0  0  0  0  0  0  0
   -2.8564   -1.5000    0.0000 C   0  0  0  0  0  0  0  0  0  0  0  0
   -1.5574   -0.7500    0.0000 C   0  0  0  0  0  0  0  0  0  0  0  0
   -0.3846   -1.6852    0.0000 C   0  0  0  0  0  0  0  0  0  0  0  0
    1.0777   -1.3515    0.0000 C   0  0  0  0  0  0  0  0  0  0  0  0
  1  2  1  0
  2  3  1  0
  3  4  1  0
  4  5  1  0
  5  6  1  0
  6  7  1  0
  7  8  1  0
  8  9  2  0
  9 10  1  0
 10 11  2  0
 11 12  1  0
 12 13  1  0
 13 14  2  0
 14 15  1  0
 15 16  2  0
 16 17  1  0
 16 18  1  0
 18 19  1  0
 20 19  1  6
 20 21  1  0
 21 22  1  0
 22 23  1  0
 23 24  1  1
 24 25  1  0
 25 26  1  0
 25 27  2  0
 25 28  2  0
 23 29  1  0
 29 30  1  0
 18 31  2  0
 11 32  1  0
 32 33  2  0
 33 34  1  0
 34 35  1  0
 35  5  1  0
 33  8  1  0
 31 13  1  0
 30 20  1  0
M  END
>  <Compound_ID>  (171) 
CHEMBL1796259

>  <Molecule Name>  (171) 
nan

>  <Molecular Weight>  (171) 
523.1

>  <AlogP>  (171) 
3.19

>  <Smiles>  (171) 
COCCN1CCc2ccc(Nc3ncc(Cl)c(N[C@H]4CC[C@H](NS(C)(=O)=O)CC4)n3)cc2CC1

>  <Standard Type>  (171) 
IC50

>  <Standard Relation>  (171) 
'='

>  <Standard Units>  (171) 
nM

>  <Standard Value>  (171) 
100.0

>  <Assay ChEMBL ID>  (171) 
CHEMBL1798383

>  <Assay Description>  (171) 
Inhibition of ALK

>  <BAO Format ID>  (171) 
BAO_0000357

>  <BAO Label>  (171) 
single protein format

>  <Assay Organism>  (171) 
None

>  <Target ChEMBL ID>  (171) 
CHEMBL4247

>  <Target Name>  (171) 
ALK tyrosine kinase receptor

>  <Target Organism>  (171) 
Homo sapiens

>  <Target Type>  (171) 
SINGLE PROTEIN

>  <Document ChEMBL ID>  (171) 
CHEMBL1795227

>  <Source Description>  (171) 
Scientific Literature

>  <Document Journal>  (171) 
Bioorg Med Chem Lett

>  <Document Year>  (171) 
2011.0

>  <Active>  (171) 
1.0

>  <bits>  (171) 
<rdkit.DataStructs.cDataStructs.ExplicitBitVect object at 0x000002422C1BA880>

>  <Group>  (171) 
G2

$$$$

     RDKit          2D

 43 48  0  0  0  0  0  0  0  0999 V2000
   -6.2940    7.2357    0.0000 C   0  0  0  0  0  0  0  0  0  0  0  0
   -5.1793    6.2320    0.0000 O   0  0  0  0  0  0  0  0  0  0  0  0
   -3.7527    6.6955    0.0000 C   0  0  0  0  0  0  0  0  0  0  0  0
   -3.4408    8.1628    0.0000 C   0  0  0  0  0  0  0  0  0  0  0  0
   -2.0143    8.6263    0.0000 C   0  0  0  0  0  0  0  0  0  0  0  0
   -1.7024   10.0935    0.0000 N   0  0  0  0  0  0  0  0  0  0  0  0
   -0.2758   10.5570    0.0000 C   0  0  0  0  0  0  0  0  0  0  0  0
    0.0361   12.0242    0.0000 C   0  0  0  0  0  0  0  0  0  0  0  0
   -1.0786   13.0279    0.0000 N   0  0  0  0  0  0  0  0  0  0  0  0
   -2.5052   12.5644    0.0000 C   0  0  0  0  0  0  0  0  0  0  0  0
   -2.8171   11.0972    0.0000 C   0  0  0  0  0  0  0  0  0  0  0  0
   -0.8995    7.6226    0.0000 C   0  0  0  0  0  0  0  0  0  0  0  0
   -1.2114    6.1554    0.0000 C   0  0  0  0  0  0  0  0  0  0  0  0
   -2.6380    5.6918    0.0000 C   0  0  0  0  0  0  0  0  0  0  0  0
   -2.9499    4.2246    0.0000 N   0  0  0  0  0  0  0  0  0  0  0  0
   -1.8351    3.2209    0.0000 C   0  0  0  0  0  0  0  0  0  0  0  0
   -0.4086    3.6844    0.0000 N   0  0  0  0  0  0  0  0  0  0  0  0
    0.7062    2.6807    0.0000 C   0  0  0  0  0  0  0  0  0  0  0  0
    2.1328    3.1443    0.0000 C   0  0  0  0  0  0  0  0  0  0  0  0
    2.4446    4.6115    0.0000 C   0  0  0  0  0  0  0  0  0  0  0  0
    3.8712    5.0750    0.0000 C   0  0  0  0  0  0  0  0  0  0  0  0
    4.9859    4.0713    0.0000 Cl  0  0  0  0  0  0  0  0  0  0  0  0
    4.1831    6.5422    0.0000 C   0  0  0  0  0  0  0  0  0  0  0  0
    3.0684    7.5459    0.0000 C   0  0  0  0  0  0  0  0  0  0  0  0
    1.6418    7.0824    0.0000 C   0  0  0  0  0  0  0  0  0  0  0  0
    1.3299    5.6152    0.0000 C   0  0  0  0  0  0  0  0  0  0  0  0
   -0.0967    5.1517    0.0000 Cl  0  0  0  0  0  0  0  0  0  0  0  0
    0.3943    1.2135    0.0000 N   0  0  0  0  0  0  0  0  0  0  0  0
    1.2760    0.0000    0.0000 C   0  0  0  0  0  0  0  0  0  0  0  0
    0.3943   -1.2135    0.0000 C   0  0  0  0  0  0  0  0  0  0  0  0
    0.8578   -2.6401    0.0000 C   0  0  0  0  0  0  0  0  0  0  0  0
   -0.1459   -3.7548    0.0000 N   0  0  0  0  0  0  0  0  0  0  0  0
   -1.6131   -3.4430    0.0000 C   0  0  0  0  0  0  0  0  0  0  0  0
   -2.6168   -4.5577    0.0000 C   0  0  0  0  0  0  0  0  0  0  0  0
   -2.1533   -5.9843    0.0000 O   0  0  0  0  0  0  0  0  0  0  0  0
   -0.6860   -6.2961    0.0000 C   0  0  0  0  0  0  0  0  0  0  0  0
    0.3177   -5.1814    0.0000 C   0  0  0  0  0  0  0  0  0  0  0  0
   -1.0323   -0.7500    0.0000 N   0  0  0  0  0  0  0  0  0  0  0  0
   -1.0323    0.7500    0.0000 C   0  0  0  0  0  0  0  0  0  0  0  0
   -2.1470    1.7537    0.0000 C   0  0  0  0  0  0  0  0  0  0  0  0
   -3.5736    1.2902    0.0000 C   0  0  0  0  0  0  0  0  0  0  0  0
   -4.6883    2.2939    0.0000 N   0  0  0  0  0  0  0  0  0  0  0  0
   -3.8855   -0.1771    0.0000 O   0  0  0  0  0  0  0  0  0  0  0  0
  1  2  1  0
  2  3  1  0
  3  4  2  0
  4  5  1  0
  5  6  1  0
  6  7  1  0
  7  8  1  0
  8  9  1  0
  9 10  1  0
 10 11  1  0
  5 12  2  0
 12 13  1  0
 13 14  2  0
 14 15  1  0
 15 16  1  0
 16 17  1  0
 17 18  2  0
 18 19  1  0
 19 20  1  0
 20 21  2  0
 21 22  1  0
 21 23  1  0
 23 24  2  0
 24 25  1  0
 25 26  2  0
 26 27  1  0
 18 28  1  0
 28 29  1  0
 29 30  2  0
 30 31  1  0
 31 32  1  0
 32 33  1  0
 33 34  1  0
 34 35  1  0
 35 36  1  0
 36 37  1  0
 30 38  1  0
 38 39  2  0
 39 40  1  0
 40 41  1  0
 41 42  1  0
 41 43  2  0
 14  3  1  0
 40 16  2  0
 11  6  1  0
 26 20  1  0
 39 28  1  0
 37 32  1  0
M  END
>  <Compound_ID>  (172) 
CHEMBL3984690

>  <Molecule Name>  (172) 
nan

>  <Molecular Weight>  (172) 
625.56

>  <AlogP>  (172) 
3.72

>  <Smiles>  (172) 
COc1cc(N2CCNCC2)ccc1Nc1nc(Cc2c(Cl)cccc2Cl)n2cc(CN3CCOCC3)nc2c1C(N)=O

>  <Standard Type>  (172) 
Ki

>  <Standard Relation>  (172) 
'='

>  <Standard Units>  (172) 
nM

>  <Standard Value>  (172) 
77.0

>  <Assay ChEMBL ID>  (172) 
CHEMBL3887723

>  <Assay Description>  (172) 
Enzyme Inhibition Assay: ALK kinase assays were conducted with the indicated final concentrations unless otherwise specified. In 384 well black plates (Axygen), 8 ul of compound (2% DMSO) was incubated with 8 ul Lck-peptide substrate (0.5 uM, biotin-Ahx-GAEEEIYAAFFA-COOH) and 8 ul of a mixture of ALK (3 nM, Millipore) and ATP (50 uM) in reaction buffer (50 mM Hepes, pH 7.4; 10 mM MgCl2; 2 mM MnCl2; 0.1 mM sodium orthovanadate; 0.01% BSA and 1 mM DTT (added fresh before assay) for 1 h at room temperature. Reactions were then quenched by the addition of 30 ul quench solution (streptavidin-allophycocyanin and Europium-cryptate PT66 monoclonal antibody in 40 mM Hepes, pH 7.4; 480 mM KF; 66 mM EDTA; 0.01% Tween-20; and 0.1% BSA) at room temperature. Plates were read 1 h after quenching on an Envision Multilaber Reader and IC50 values were calculated using a sigmoidal fit of the concentration/inhibition response curves. These values were converted to apparent Ki values.

>  <BAO Format ID>  (172) 
BAO_0000357

>  <BAO Label>  (172) 
single protein format

>  <Assay Organism>  (172) 
Homo sapiens

>  <Target ChEMBL ID>  (172) 
CHEMBL4247

>  <Target Name>  (172) 
ALK tyrosine kinase receptor

>  <Target Organism>  (172) 
Homo sapiens

>  <Target Type>  (172) 
SINGLE PROTEIN

>  <Document ChEMBL ID>  (172) 
CHEMBL3886424

>  <Source Description>  (172) 
BindingDB Database

>  <Document Journal>  (172) 
nan

>  <Document Year>  (172) 
2015.0

>  <Active>  (172) 
1.0

>  <bits>  (172) 
<rdkit.DataStructs.cDataStructs.ExplicitBitVect object at 0x000002422C1BA960>

>  <Group>  (172) 
G2

$$$$

     RDKit          2D

 66 72  0  0  0  0  0  0  0  0999 V2000
   -3.0000    0.0000    0.0000 C   0  0  0  0  0  0  0  0  0  0  0  0
   -1.5000   -0.0000    0.0000 C   0  0  0  0  0  0  0  0  0  0  0  0
   -0.7500   -1.2990    0.0000 N   0  0  0  0  0  0  0  0  0  0  0  0
    0.7500   -1.2990    0.0000 C   0  0  0  0  0  0  0  0  0  0  0  0
    1.5000    0.0000    0.0000 O   0  0  0  0  0  0  0  0  0  0  0  0
    1.5000   -2.5981    0.0000 C   0  0  0  0  0  0  0  0  0  0  0  0
    2.9918   -2.7549    0.0000 N   0  0  0  0  0  0  0  0  0  0  0  0
    3.3037   -4.2221    0.0000 O   0  0  0  0  0  0  0  0  0  0  0  0
    2.0046   -4.9721    0.0000 C   0  0  0  0  0  0  0  0  0  0  0  0
    1.8478   -6.4639    0.0000 C   0  0  0  0  0  0  0  0  0  0  0  0
    0.4775   -7.0740    0.0000 C   0  0  0  0  0  0  0  0  0  0  0  0
    0.3207   -8.5658    0.0000 C   0  0  0  0  0  0  0  0  0  0  0  0
   -1.0496   -9.1759    0.0000 C   0  0  0  0  0  0  0  0  0  0  0  0
   -2.2631   -8.2942    0.0000 C   0  0  0  0  0  0  0  0  0  0  0  0
   -1.2064  -10.6676    0.0000 C   0  0  0  0  0  0  0  0  0  0  0  0
    1.5342   -9.4474    0.0000 C   0  0  0  0  0  0  0  0  0  0  0  0
    1.3774  -10.9392    0.0000 O   0  0  0  0  0  0  0  0  0  0  0  0
    2.9046   -8.8373    0.0000 C   0  0  0  0  0  0  0  0  0  0  0  0
    3.0613   -7.3456    0.0000 C   0  0  0  0  0  0  0  0  0  0  0  0
    4.4317   -6.7354    0.0000 O   0  0  0  0  0  0  0  0  0  0  0  0
    0.8899   -3.9684    0.0000 C   0  0  0  0  0  0  0  0  0  0  0  0
   -0.5773   -4.2803    0.0000 C   0  0  0  0  0  0  0  0  0  0  0  0
   -1.5810   -3.1655    0.0000 C   0  0  0  0  0  0  0  0  0  0  0  0
   -3.0482   -3.4774    0.0000 C   0  0  0  0  0  0  0  0  0  0  0  0
   -3.5118   -4.9040    0.0000 C   0  0  0  0  0  0  0  0  0  0  0  0
   -4.9790   -5.2159    0.0000 C   0  0  0  0  0  0  0  0  0  0  0  0
   -5.4425   -6.6424    0.0000 O   0  0  0  0  0  0  0  0  0  0  0  0
   -5.9827   -4.1011    0.0000 N   0  0  0  0  0  0  0  0  0  0  0  0
   -5.5192   -2.6746    0.0000 C   0  0  0  0  0  0  0  0  0  0  0  0
   -6.5229   -1.5598    0.0000 C   0  0  0  0  0  0  0  0  0  0  0  0
   -7.9901   -1.8717    0.0000 N   0  0  0  0  0  0  0  0  0  0  0  0
   -8.9938   -0.7570    0.0000 C   0  0  0  0  0  0  0  0  0  0  0  0
   -8.5302    0.6696    0.0000 C   0  0  0  0  0  0  0  0  0  0  0  0
   -7.0630    0.9815    0.0000 O   0  0  0  0  0  0  0  0  0  0  0  0
   -9.5339    1.7843    0.0000 N   0  0  0  0  0  0  0  0  0  0  0  0
   -9.0704    3.2109    0.0000 C   0  0  0  0  0  0  0  0  0  0  0  0
   -7.6032    3.5228    0.0000 C   0  0  0  0  0  0  0  0  0  0  0  0
   -7.1397    4.9493    0.0000 C   0  0  0  0  0  0  0  0  0  0  0  0
   -8.1434    6.0641    0.0000 C   0  0  0  0  0  0  0  0  0  0  0  0
   -9.6106    5.7522    0.0000 C   0  0  0  0  0  0  0  0  0  0  0  0
  -10.6143    6.8669    0.0000 N   0  0  0  0  0  0  0  0  0  0  0  0
  -10.1508    8.2935    0.0000 C   0  0  0  0  0  0  0  0  0  0  0  0
   -8.6835    8.6054    0.0000 N   0  0  0  0  0  0  0  0  0  0  0  0
   -8.2200   10.0319    0.0000 C   0  0  0  0  0  0  0  0  0  0  0  0
   -9.2237   11.1467    0.0000 C   0  0  0  0  0  0  0  0  0  0  0  0
   -8.7602   12.5732    0.0000 Cl  0  0  0  0  0  0  0  0  0  0  0  0
  -10.6909   10.8348    0.0000 C   0  0  0  0  0  0  0  0  0  0  0  0
  -11.6946   11.9495    0.0000 N   0  0  0  0  0  0  0  0  0  0  0  0
  -13.1618   11.6376    0.0000 C   0  0  0  0  0  0  0  0  0  0  0  0
  -13.6254   10.2111    0.0000 C   0  0  0  0  0  0  0  0  0  0  0  0
  -15.0926    9.8992    0.0000 C   0  0  0  0  0  0  0  0  0  0  0  0
  -16.0963   11.0139    0.0000 C   0  0  0  0  0  0  0  0  0  0  0  0
  -15.6328   12.4405    0.0000 C   0  0  0  0  0  0  0  0  0  0  0  0
  -14.1655   12.7524    0.0000 C   0  0  0  0  0  0  0  0  0  0  0  0
  -13.7020   14.1789    0.0000 S   0  0  0  0  0  0  0  0  0  0  0  0
  -12.2754   13.7154    0.0000 O   0  0  0  0  0  0  0  0  0  0  0  0
  -15.1286   14.6425    0.0000 O   0  0  0  0  0  0  0  0  0  0  0  0
  -13.2385   15.6055    0.0000 C   0  0  0  0  0  0  0  0  0  0  0  0
  -14.2422   16.7203    0.0000 C   0  0  0  0  0  0  0  0  0  0  0  0
  -11.7713   15.9174    0.0000 C   0  0  0  0  0  0  0  0  0  0  0  0
  -11.1545    9.4082    0.0000 N   0  0  0  0  0  0  0  0  0  0  0  0
  -10.0741    4.3256    0.0000 C   0  0  0  0  0  0  0  0  0  0  0  0
   -8.4536   -3.2983    0.0000 C   0  0  0  0  0  0  0  0  0  0  0  0
   -7.4499   -4.4130    0.0000 C   0  0  0  0  0  0  0  0  0  0  0  0
   -2.5081   -6.0187    0.0000 C   0  0  0  0  0  0  0  0  0  0  0  0
   -1.0409   -5.7068    0.0000 C   0  0  0  0  0  0  0  0  0  0  0  0
  1  2  1  0
  2  3  1  0
  3  4  1  0
  4  5  2  0
  4  6  1  0
  6  7  2  0
  7  8  1  0
  8  9  1  0
  9 10  1  0
 10 11  2  0
 11 12  1  0
 12 13  1  0
 13 14  1  0
 13 15  1  0
 12 16  2  0
 16 17  1  0
 16 18  1  0
 18 19  2  0
 19 20  1  0
  9 21  2  0
 21 22  1  0
 22 23  2  0
 23 24  1  0
 24 25  2  0
 25 26  1  0
 26 27  2  0
 26 28  1  0
 28 29  1  0
 29 30  1  0
 30 31  1  0
 31 32  1  0
 32 33  1  0
 33 34  2  0
 33 35  1  0
 35 36  1  0
 36 37  2  0
 37 38  1  0
 38 39  2  0
 39 40  1  0
 40 41  1  0
 41 42  1  0
 42 43  2  0
 43 44  1  0
 44 45  2  0
 45 46  1  0
 45 47  1  0
 47 48  1  0
 48 49  1  0
 49 50  2  0
 50 51  1  0
 51 52  2  0
 52 53  1  0
 53 54  2  0
 54 55  1  0
 55 56  2  0
 55 57  2  0
 55 58  1  0
 58 59  1  0
 58 60  1  0
 47 61  2  0
 40 62  2  0
 31 63  1  0
 63 64  1  0
 25 65  1  0
 65 66  2  0
 21  6  1  0
 66 22  1  0
 19 10  1  0
 64 28  1  0
 62 36  1  0
 61 42  1  0
 54 49  1  0
M  END
>  <Compound_ID>  (173) 
CHEMBL4162078

>  <Molecule Name>  (173) 
nan

>  <Molecular Weight>  (173) 
936.49

>  <AlogP>  (173) 
7.80

>  <Smiles>  (173) 
CCNC(=O)c1noc(-c2cc(C(C)C)c(O)cc2O)c1-c1ccc(C(=O)N2CCN(CC(=O)Nc3cccc(Nc4ncc(Cl)c(Nc5ccccc5S(=O)(=O)C(C)C)n4)c3)CC2)cc1

>  <Standard Type>  (173) 
IC50

>  <Standard Relation>  (173) 
'='

>  <Standard Units>  (173) 
nM

>  <Standard Value>  (173) 
22.9

>  <Assay ChEMBL ID>  (173) 
CHEMBL4153979

>  <Assay Description>  (173) 
Inhibition of recombinant ALK (unknown origin) using poly (Glu,Tyr)4:1 as substrate after 60 mins by ELISA

>  <BAO Format ID>  (173) 
BAO_0000357

>  <BAO Label>  (173) 
single protein format

>  <Assay Organism>  (173) 
Homo sapiens

>  <Target ChEMBL ID>  (173) 
CHEMBL4247

>  <Target Name>  (173) 
ALK tyrosine kinase receptor

>  <Target Organism>  (173) 
Homo sapiens

>  <Target Type>  (173) 
SINGLE PROTEIN

>  <Document ChEMBL ID>  (173) 
CHEMBL4152232

>  <Source Description>  (173) 
Scientific Literature

>  <Document Journal>  (173) 
Eur J Med Chem

>  <Document Year>  (173) 
2018.0

>  <Active>  (173) 
1.0

>  <bits>  (173) 
<rdkit.DataStructs.cDataStructs.ExplicitBitVect object at 0x000002422C1BACE0>

>  <Group>  (173) 
G2

$$$$

     RDKit          2D

 29 32  0  0  0  0  0  0  0  0999 V2000
    3.7500   -3.8971    0.0000 C   0  0  0  0  0  0  0  0  0  0  0  0
    4.5000   -2.5981    0.0000 N   0  0  0  0  0  0  0  0  0  0  0  0
    6.0000   -2.5981    0.0000 C   0  0  0  0  0  0  0  0  0  0  0  0
    3.7500   -1.2990    0.0000 S   0  0  0  0  0  0  0  0  0  0  0  0
    2.4510   -2.0490    0.0000 O   0  0  0  0  0  0  0  0  0  0  0  0
    5.0490   -0.5490    0.0000 O   0  0  0  0  0  0  0  0  0  0  0  0
    3.0000    0.0000    0.0000 O   0  0  0  0  0  0  0  0  0  0  0  0
    1.5000    0.0000    0.0000 C   0  0  0  0  0  0  0  0  0  0  0  0
    0.7500   -1.2990    0.0000 C   0  0  0  0  0  0  0  0  0  0  0  0
   -0.7500   -1.2990    0.0000 C   0  0  0  0  0  0  0  0  0  0  0  0
   -1.5000    0.0000    0.0000 C   0  0  0  0  0  0  0  0  0  0  0  0
   -0.7500    1.2990    0.0000 C   0  0  0  0  0  0  0  0  0  0  0  0
    0.7500    1.2990    0.0000 C   0  0  0  0  0  0  0  0  0  0  0  0
   -1.5000    2.5981    0.0000 C   0  0  0  0  0  0  0  0  0  0  0  0
   -1.7605    4.0753    0.0000 C   0  0  0  0  0  0  0  0  0  0  0  0
   -0.0905    3.1111    0.0000 C   0  0  0  0  0  0  0  0  0  0  0  0
   -3.0000    2.5981    0.0000 C   0  0  0  0  0  0  0  0  0  0  0  0
   -4.0037    3.7128    0.0000 N   0  0  0  0  0  0  0  0  0  0  0  0
   -5.3740    3.1027    0.0000 C   0  0  0  0  0  0  0  0  0  0  0  0
   -6.7443    3.7128    0.0000 C   0  0  0  0  0  0  0  0  0  0  0  0
   -7.9579    2.8311    0.0000 C   0  0  0  0  0  0  0  0  0  0  0  0
   -9.3282    3.4412    0.0000 C   0  0  0  0  0  0  0  0  0  0  0  0
  -10.6985    4.0513    0.0000 N   0  0  0  0  0  0  0  0  0  0  0  0
   -7.8011    1.3393    0.0000 C   0  0  0  0  0  0  0  0  0  0  0  0
   -6.4307    0.7292    0.0000 C   0  0  0  0  0  0  0  0  0  0  0  0
   -5.2172    1.6109    0.0000 C   0  0  0  0  0  0  0  0  0  0  0  0
   -3.7500    1.2990    0.0000 C   0  0  0  0  0  0  0  0  0  0  0  0
   -3.0000    0.0000    0.0000 C   0  0  0  0  0  0  0  0  0  0  0  0
   -3.7500   -1.2990    0.0000 O   0  0  0  0  0  0  0  0  0  0  0  0
  1  2  1  0
  2  3  1  0
  2  4  1  0
  4  5  2  0
  4  6  2  0
  4  7  1  0
  7  8  1  0
  8  9  2  0
  9 10  1  0
 10 11  2  0
 11 12  1  0
 12 13  2  0
 12 14  1  0
 14 15  1  0
 14 16  1  0
 14 17  1  0
 17 18  1  0
 18 19  1  0
 19 20  2  0
 20 21  1  0
 21 22  1  0
 22 23  3  0
 21 24  2  0
 24 25  1  0
 25 26  2  0
 26 27  1  0
 27 28  1  0
 28 29  2  0
 13  8  1  0
 27 17  2  0
 28 11  1  0
 26 19  1  0
M  END
>  <Compound_ID>  (174) 
CHEMBL3934973

>  <Molecule Name>  (174) 
nan

>  <Molecular Weight>  (174) 
409.47

>  <AlogP>  (174) 
3.10

>  <Smiles>  (174) 
CN(C)S(=O)(=O)Oc1ccc2c(c1)C(C)(C)c1[nH]c3cc(C#N)ccc3c1C2=O

>  <Standard Type>  (174) 
IC50

>  <Standard Relation>  (174) 
'='

>  <Standard Units>  (174) 
nM

>  <Standard Value>  (174) 
51.1

>  <Assay ChEMBL ID>  (174) 
CHEMBL3887074

>  <Assay Description>  (174) 
Inhibition Assay: ALK-inhibiting activity was measured by following an activity of inhibiting phosphorylation by biotinylated peptide (EGPWLEEEEEAYGWMDF). For the detection of phosphorylation of the biotinylated peptide, time-resolved fluorescence measurement was performed using an anti-phosphorylated tyrosine antibody labeled with europium cryptate and streptavidin conjugated to XL665, i.e., an allophycocyanin derivative.

>  <BAO Format ID>  (174) 
BAO_0000357

>  <BAO Label>  (174) 
single protein format

>  <Assay Organism>  (174) 
Homo sapiens

>  <Target ChEMBL ID>  (174) 
CHEMBL4247

>  <Target Name>  (174) 
ALK tyrosine kinase receptor

>  <Target Organism>  (174) 
Homo sapiens

>  <Target Type>  (174) 
SINGLE PROTEIN

>  <Document ChEMBL ID>  (174) 
CHEMBL3886150

>  <Source Description>  (174) 
BindingDB Database

>  <Document Journal>  (174) 
nan

>  <Document Year>  (174) 
2015.0

>  <Active>  (174) 
1.0

>  <bits>  (174) 
<rdkit.DataStructs.cDataStructs.ExplicitBitVect object at 0x000002422C1BAAB0>

>  <Group>  (174) 
G2

$$$$

     RDKit          2D

 27 31  0  0  0  0  0  0  0  0999 V2000
    2.6491   -3.5623    0.0000 C   0  0  0  0  0  0  0  0  0  0  0  0
    1.5000   -2.5981    0.0000 C   0  0  0  0  0  0  0  0  0  0  0  0
    2.6491   -1.6339    0.0000 C   0  0  0  0  0  0  0  0  0  0  0  0
    0.7500   -1.2990    0.0000 C   0  0  0  0  0  0  0  0  0  0  0  0
    1.5000    0.0000    0.0000 C   0  0  0  0  0  0  0  0  0  0  0  0
    0.7500    1.2990    0.0000 C   0  0  0  0  0  0  0  0  0  0  0  0
    1.5000    2.5981    0.0000 O   0  0  0  0  0  0  0  0  0  0  0  0
    3.0000    2.5981    0.0000 C   0  0  0  0  0  0  0  0  0  0  0  0
    4.0607    1.5374    0.0000 C   0  0  0  0  0  0  0  0  0  0  0  0
    5.1213    2.5981    0.0000 O   0  0  0  0  0  0  0  0  0  0  0  0
    4.0607    3.6587    0.0000 C   0  0  0  0  0  0  0  0  0  0  0  0
   -0.7500    1.2990    0.0000 C   0  0  0  0  0  0  0  0  0  0  0  0
   -1.5000    0.0000    0.0000 C   0  0  0  0  0  0  0  0  0  0  0  0
   -0.7500   -1.2990    0.0000 C   0  0  0  0  0  0  0  0  0  0  0  0
   -1.5000   -2.5981    0.0000 C   0  0  0  0  0  0  0  0  0  0  0  0
   -3.0000   -2.5981    0.0000 O   0  0  0  0  0  0  0  0  0  0  0  0
   -0.7500   -3.8971    0.0000 C   0  0  0  0  0  0  0  0  0  0  0  0
    0.7500   -3.8971    0.0000 C   0  0  0  0  0  0  0  0  0  0  0  0
    1.2135   -5.3237    0.0000 N   0  0  0  0  0  0  0  0  0  0  0  0
    0.0000   -6.2054    0.0000 C   0  0  0  0  0  0  0  0  0  0  0  0
   -0.1568   -7.6972    0.0000 C   0  0  0  0  0  0  0  0  0  0  0  0
   -1.5271   -8.3073    0.0000 C   0  0  0  0  0  0  0  0  0  0  0  0
   -1.6839   -9.7990    0.0000 C   0  0  0  0  0  0  0  0  0  0  0  0
   -1.8407  -11.2908    0.0000 N   0  0  0  0  0  0  0  0  0  0  0  0
   -2.7406   -7.4256    0.0000 C   0  0  0  0  0  0  0  0  0  0  0  0
   -2.5838   -5.9338    0.0000 C   0  0  0  0  0  0  0  0  0  0  0  0
   -1.2135   -5.3237    0.0000 C   0  0  0  0  0  0  0  0  0  0  0  0
  1  2  1  0
  2  3  1  0
  2  4  1  0
  4  5  2  0
  5  6  1  0
  6  7  1  0
  7  8  1  0
  8  9  1  0
  9 10  1  0
 10 11  1  0
  6 12  2  0
 12 13  1  0
 13 14  2  0
 14 15  1  0
 15 16  2  0
 15 17  1  0
 17 18  2  0
 18 19  1  0
 19 20  1  0
 20 21  2  0
 21 22  1  0
 22 23  1  0
 23 24  3  0
 22 25  2  0
 25 26  1  0
 26 27  2  0
 18  2  1  0
 27 20  1  0
 14  4  1  0
 27 17  1  0
 11  8  1  0
M  END
>  <Compound_ID>  (175) 
CHEMBL3921085

>  <Molecule Name>  (175) 
nan

>  <Molecular Weight>  (175) 
358.4

>  <AlogP>  (175) 
3.69

>  <Smiles>  (175) 
CC1(C)c2cc(OC3COC3)ccc2C(=O)c2c1[nH]c1cc(C#N)ccc21

>  <Standard Type>  (175) 
IC50

>  <Standard Relation>  (175) 
'='

>  <Standard Units>  (175) 
nM

>  <Standard Value>  (175) 
17.71

>  <Assay ChEMBL ID>  (175) 
CHEMBL3887074

>  <Assay Description>  (175) 
Inhibition Assay: ALK-inhibiting activity was measured by following an activity of inhibiting phosphorylation by biotinylated peptide (EGPWLEEEEEAYGWMDF). For the detection of phosphorylation of the biotinylated peptide, time-resolved fluorescence measurement was performed using an anti-phosphorylated tyrosine antibody labeled with europium cryptate and streptavidin conjugated to XL665, i.e., an allophycocyanin derivative.

>  <BAO Format ID>  (175) 
BAO_0000357

>  <BAO Label>  (175) 
single protein format

>  <Assay Organism>  (175) 
Homo sapiens

>  <Target ChEMBL ID>  (175) 
CHEMBL4247

>  <Target Name>  (175) 
ALK tyrosine kinase receptor

>  <Target Organism>  (175) 
Homo sapiens

>  <Target Type>  (175) 
SINGLE PROTEIN

>  <Document ChEMBL ID>  (175) 
CHEMBL3886150

>  <Source Description>  (175) 
BindingDB Database

>  <Document Journal>  (175) 
nan

>  <Document Year>  (175) 
2015.0

>  <Active>  (175) 
1.0

>  <bits>  (175) 
<rdkit.DataStructs.cDataStructs.ExplicitBitVect object at 0x000002422C1BB140>

>  <Group>  (175) 
G2

$$$$

     RDKit          2D

 30 33  0  0  0  0  0  0  0  0999 V2000
   -1.9975  -10.1845    0.0000 C   0  0  0  0  0  0  0  0  0  0  0  0
   -3.2110   -9.3029    0.0000 O   0  0  0  0  0  0  0  0  0  0  0  0
   -3.0542   -7.8111    0.0000 C   0  0  0  0  0  0  0  0  0  0  0  0
   -1.6839   -7.2010    0.0000 C   0  0  0  0  0  0  0  0  0  0  0  0
   -1.5271   -5.7092    0.0000 C   0  0  0  0  0  0  0  0  0  0  0  0
   -2.7406   -4.8275    0.0000 C   0  0  0  0  0  0  0  0  0  0  0  0
   -4.1110   -5.4376    0.0000 C   0  0  0  0  0  0  0  0  0  0  0  0
   -4.2677   -6.9294    0.0000 C   0  0  0  0  0  0  0  0  0  0  0  0
   -5.6381   -7.5395    0.0000 C   0  0  0  0  0  0  0  0  0  0  0  0
   -6.8516   -6.6578    0.0000 C   0  0  0  0  0  0  0  0  0  0  0  0
   -8.2219   -7.2679    0.0000 C   0  0  0  0  0  0  0  0  0  0  0  0
   -7.6118   -8.6382    0.0000 C   0  0  0  0  0  0  0  0  0  0  0  0
   -8.8320   -5.8976    0.0000 C   0  0  0  0  0  0  0  0  0  0  0  0
   -9.5922   -7.8780    0.0000 O   0  0  0  0  0  0  0  0  0  0  0  0
   -2.5838   -3.3357    0.0000 C   0  0  0  0  0  0  0  0  0  0  0  0
   -3.7974   -2.4540    0.0000 O   0  0  0  0  0  0  0  0  0  0  0  0
   -1.2135   -2.7256    0.0000 C   0  0  0  0  0  0  0  0  0  0  0  0
   -0.0000   -3.6073    0.0000 C   0  0  0  0  0  0  0  0  0  0  0  0
    1.2135   -2.7256    0.0000 N   0  0  0  0  0  0  0  0  0  0  0  0
    0.7500   -1.2990    0.0000 C   0  0  0  0  0  0  0  0  0  0  0  0
    1.5000    0.0000    0.0000 C   0  0  0  0  0  0  0  0  0  0  0  0
    0.7500    1.2990    0.0000 C   0  0  0  0  0  0  0  0  0  0  0  0
    1.5000    2.5981    0.0000 C   0  0  0  0  0  0  0  0  0  0  0  0
    2.2500    3.8971    0.0000 N   0  0  0  0  0  0  0  0  0  0  0  0
   -0.7500    1.2990    0.0000 C   0  0  0  0  0  0  0  0  0  0  0  0
   -1.5000    0.0000    0.0000 C   0  0  0  0  0  0  0  0  0  0  0  0
   -0.7500   -1.2990    0.0000 C   0  0  0  0  0  0  0  0  0  0  0  0
   -0.1568   -5.0991    0.0000 C   0  0  0  0  0  0  0  0  0  0  0  0
    0.2061   -6.5545    0.0000 C   0  0  0  0  0  0  0  0  0  0  0  0
    1.3396   -4.9944    0.0000 C   0  0  0  0  0  0  0  0  0  0  0  0
  1  2  1  0
  2  3  1  0
  3  4  2  0
  4  5  1  0
  5  6  2  0
  6  7  1  0
  7  8  2  0
  8  9  1  0
  9 10  1  0
 10 11  1  0
 11 12  1  0
 11 13  1  0
 11 14  1  0
  6 15  1  0
 15 16  2  0
 15 17  1  0
 17 18  2  0
 18 19  1  0
 19 20  1  0
 20 21  2  0
 21 22  1  0
 22 23  1  0
 23 24  3  0
 22 25  2  0
 25 26  1  0
 26 27  2  0
 18 28  1  0
 28 29  1  0
 28 30  1  0
  8  3  1  0
 27 17  1  0
 28  5  1  0
 27 20  1  0
M  END
>  <Compound_ID>  (176) 
CHEMBL3935006

>  <Molecule Name>  (176) 
nan

>  <Molecular Weight>  (176) 
402.49

>  <AlogP>  (176) 
4.62

>  <Smiles>  (176) 
COc1cc2c(cc1CCC(C)(C)O)C(=O)c1c([nH]c3cc(C#N)ccc13)C2(C)C

>  <Standard Type>  (176) 
IC50

>  <Standard Relation>  (176) 
'='

>  <Standard Units>  (176) 
nM

>  <Standard Value>  (176) 
8.113

>  <Assay ChEMBL ID>  (176) 
CHEMBL3887074

>  <Assay Description>  (176) 
Inhibition Assay: ALK-inhibiting activity was measured by following an activity of inhibiting phosphorylation by biotinylated peptide (EGPWLEEEEEAYGWMDF). For the detection of phosphorylation of the biotinylated peptide, time-resolved fluorescence measurement was performed using an anti-phosphorylated tyrosine antibody labeled with europium cryptate and streptavidin conjugated to XL665, i.e., an allophycocyanin derivative.

>  <BAO Format ID>  (176) 
BAO_0000357

>  <BAO Label>  (176) 
single protein format

>  <Assay Organism>  (176) 
Homo sapiens

>  <Target ChEMBL ID>  (176) 
CHEMBL4247

>  <Target Name>  (176) 
ALK tyrosine kinase receptor

>  <Target Organism>  (176) 
Homo sapiens

>  <Target Type>  (176) 
SINGLE PROTEIN

>  <Document ChEMBL ID>  (176) 
CHEMBL3886150

>  <Source Description>  (176) 
BindingDB Database

>  <Document Journal>  (176) 
nan

>  <Document Year>  (176) 
2015.0

>  <Active>  (176) 
1.0

>  <bits>  (176) 
<rdkit.DataStructs.cDataStructs.ExplicitBitVect object at 0x000002422C1BA180>

>  <Group>  (176) 
G2

$$$$

     RDKit          2D

 39 42  0  0  0  0  0  0  0  0999 V2000
   -2.5808   -7.6230    0.0000 C   0  0  0  0  0  0  0  0  0  0  0  0
   -2.4240   -6.1312    0.0000 C   0  0  0  0  0  0  0  0  0  0  0  0
   -1.0537   -5.5211    0.0000 N   0  0  0  0  0  0  0  0  0  0  0  0
   -0.7418   -4.0539    0.0000 C   0  0  0  0  0  0  0  0  0  0  0  0
    0.7500   -3.8971    0.0000 C   0  0  0  0  0  0  0  0  0  0  0  0
    1.5000   -2.5981    0.0000 N   0  0  0  0  0  0  0  0  0  0  0  0
    0.7500   -1.2990    0.0000 C   0  0  0  0  0  0  0  0  0  0  0  0
    1.5000    0.0000    0.0000 N   0  0  0  0  0  0  0  0  0  0  0  0
    0.7500    1.2990    0.0000 C   0  0  0  0  0  0  0  0  0  0  0  0
    1.5000    2.5981    0.0000 N   0  0  0  0  0  0  0  0  0  0  0  0
    3.0000    2.5981    0.0000 C   0  0  0  0  0  0  0  0  0  0  0  0
    3.7500    1.2990    0.0000 C   0  0  0  0  0  0  0  0  0  0  0  0
    5.2500    1.2990    0.0000 C   0  0  0  0  0  0  0  0  0  0  0  0
    6.0000   -0.0000    0.0000 C   0  0  0  0  0  0  0  0  0  0  0  0
    6.0000    2.5981    0.0000 C   0  0  0  0  0  0  0  0  0  0  0  0
    7.5000    2.5981    0.0000 C   0  0  0  0  0  0  0  0  0  0  0  0
    8.2500    1.2990    0.0000 C   0  0  0  0  0  0  0  0  0  0  0  0
    9.7500    1.2990    0.0000 C   0  0  0  0  0  0  0  0  0  0  0  0
   10.5000    2.5981    0.0000 N   0  0  0  0  0  0  0  0  0  0  0  0
    9.7500    3.8971    0.0000 C   0  0  0  0  0  0  0  0  0  0  0  0
    8.2500    3.8971    0.0000 C   0  0  0  0  0  0  0  0  0  0  0  0
    5.2500    3.8971    0.0000 C   0  0  0  0  0  0  0  0  0  0  0  0
    3.7500    3.8971    0.0000 C   0  0  0  0  0  0  0  0  0  0  0  0
    3.0000    5.1962    0.0000 O   0  0  0  0  0  0  0  0  0  0  0  0
    3.7500    6.4952    0.0000 C   0  0  0  0  0  0  0  0  0  0  0  0
    3.0000    7.7942    0.0000 C   0  0  0  0  0  0  0  0  0  0  0  0
    5.2500    6.4952    0.0000 C   0  0  0  0  0  0  0  0  0  0  0  0
   -0.7500    1.2990    0.0000 N   0  0  0  0  0  0  0  0  0  0  0  0
   -1.5000    0.0000    0.0000 C   0  0  0  0  0  0  0  0  0  0  0  0
   -0.7500   -1.2990    0.0000 C   0  0  0  0  0  0  0  0  0  0  0  0
   -1.5000   -2.5981    0.0000 Cl  0  0  0  0  0  0  0  0  0  0  0  0
    1.3601   -5.2674    0.0000 C   0  0  0  0  0  0  0  0  0  0  0  0
    2.8273   -5.5793    0.0000 S   0  0  0  0  0  0  0  0  0  0  0  0
    3.1392   -4.1121    0.0000 O   0  0  0  0  0  0  0  0  0  0  0  0
    2.5155   -7.0465    0.0000 O   0  0  0  0  0  0  0  0  0  0  0  0
    4.2945   -5.8912    0.0000 C   0  0  0  0  0  0  0  0  0  0  0  0
    4.7581   -7.3178    0.0000 C   0  0  0  0  0  0  0  0  0  0  0  0
    5.2982   -4.7765    0.0000 C   0  0  0  0  0  0  0  0  0  0  0  0
    0.2454   -6.2711    0.0000 N   0  0  0  0  0  0  0  0  0  0  0  0
  1  2  1  0
  2  3  1  0
  3  4  1  0
  4  5  2  0
  5  6  1  0
  6  7  1  0
  7  8  2  0
  8  9  1  0
  9 10  1  0
 10 11  1  0
 11 12  2  0
 12 13  1  0
 13 14  1  0
 13 15  2  0
 15 16  1  0
 16 17  1  0
 17 18  1  0
 18 19  1  0
 19 20  1  0
 20 21  1  0
 15 22  1  0
 22 23  2  0
 23 24  1  0
 24 25  1  0
 25 26  1  0
 25 27  1  0
  9 28  2  0
 28 29  1  0
 29 30  2  0
 30 31  1  0
  5 32  1  0
 32 33  1  0
 33 34  2  0
 33 35  2  0
 33 36  1  0
 36 37  1  0
 36 38  1  0
 32 39  2  0
 39  3  1  0
 30  7  1  0
 23 11  1  0
 21 16  1  0
M  END
>  <Compound_ID>  (177) 
CHEMBL3787103

>  <Molecule Name>  (177) 
nan

>  <Molecular Weight>  (177) 
576.17

>  <AlogP>  (177) 
5.58

>  <Smiles>  (177) 
CCn1cc(Nc2nc(Nc3cc(C)c(C4CCNCC4)cc3OC(C)C)ncc2Cl)c(S(=O)(=O)C(C)C)n1

>  <Standard Type>  (177) 
IC50

>  <Standard Relation>  (177) 
'='

>  <Standard Units>  (177) 
nM

>  <Standard Value>  (177) 
20.0

>  <Assay ChEMBL ID>  (177) 
CHEMBL3791910

>  <Assay Description>  (177) 
Inhibition of recombinant human wild type ALK using tyrosine kinase substrate-biotin after 30 mins by HTRF assay

>  <BAO Format ID>  (177) 
BAO_0000357

>  <BAO Label>  (177) 
single protein format

>  <Assay Organism>  (177) 
Homo sapiens

>  <Target ChEMBL ID>  (177) 
CHEMBL4247

>  <Target Name>  (177) 
ALK tyrosine kinase receptor

>  <Target Organism>  (177) 
Homo sapiens

>  <Target Type>  (177) 
SINGLE PROTEIN

>  <Document ChEMBL ID>  (177) 
CHEMBL3785058

>  <Source Description>  (177) 
Scientific Literature

>  <Document Journal>  (177) 
Bioorg Med Chem Lett

>  <Document Year>  (177) 
2016.0

>  <Active>  (177) 
1.0

>  <bits>  (177) 
<rdkit.DataStructs.cDataStructs.ExplicitBitVect object at 0x000002422C1BBD10>

>  <Group>  (177) 
G2

$$$$

     RDKit          2D

 40 45  0  0  0  0  0  0  0  0999 V2000
   -6.8516   -6.6578    0.0000 C   0  0  0  0  0  0  0  0  0  0  0  0
   -5.6381   -7.5395    0.0000 C   0  0  0  0  0  0  0  0  0  0  0  0
   -4.2677   -6.9294    0.0000 C   0  0  0  0  0  0  0  0  0  0  0  0
   -4.1110   -5.4376    0.0000 C   0  0  0  0  0  0  0  0  0  0  0  0
   -2.7406   -4.8275    0.0000 C   0  0  0  0  0  0  0  0  0  0  0  0
   -1.5271   -5.7092    0.0000 C   0  0  0  0  0  0  0  0  0  0  0  0
   -1.6839   -7.2010    0.0000 C   0  0  0  0  0  0  0  0  0  0  0  0
   -3.0542   -7.8111    0.0000 C   0  0  0  0  0  0  0  0  0  0  0  0
   -3.2110   -9.3029    0.0000 N   0  0  0  0  0  0  0  0  0  0  0  0
   -1.9975  -10.1845    0.0000 C   0  0  0  0  0  0  0  0  0  0  0  0
   -0.6272   -9.5744    0.0000 O   0  0  0  0  0  0  0  0  0  0  0  0
   -2.1543  -11.6763    0.0000 C   0  0  0  0  0  0  0  0  0  0  0  0
   -3.5246  -12.2864    0.0000 C   0  0  0  0  0  0  0  0  0  0  0  0
   -3.6814  -13.7782    0.0000 C   0  0  0  0  0  0  0  0  0  0  0  0
   -2.4679  -14.6599    0.0000 N   0  0  0  0  0  0  0  0  0  0  0  0
   -1.0975  -14.0498    0.0000 C   0  0  0  0  0  0  0  0  0  0  0  0
   -0.0939  -15.1645    0.0000 N   0  0  0  0  0  0  0  0  0  0  0  0
   -0.8439  -16.4635    0.0000 N   0  0  0  0  0  0  0  0  0  0  0  0
   -2.3111  -16.1517    0.0000 C   0  0  0  0  0  0  0  0  0  0  0  0
   -3.4258  -17.1554    0.0000 C   0  0  0  0  0  0  0  0  0  0  0  0
   -4.5405  -18.1591    0.0000 F   0  0  0  0  0  0  0  0  0  0  0  0
   -2.4221  -18.2701    0.0000 F   0  0  0  0  0  0  0  0  0  0  0  0
   -4.4295  -16.0406    0.0000 F   0  0  0  0  0  0  0  0  0  0  0  0
   -0.9408  -12.5580    0.0000 C   0  0  0  0  0  0  0  0  0  0  0  0
   -0.1568   -5.0991    0.0000 C   0  0  0  0  0  0  0  0  0  0  0  0
    1.3396   -4.9944    0.0000 C   0  0  0  0  0  0  0  0  0  0  0  0
    0.2061   -6.5545    0.0000 C   0  0  0  0  0  0  0  0  0  0  0  0
   -0.0000   -3.6073    0.0000 C   0  0  0  0  0  0  0  0  0  0  0  0
    1.2135   -2.7256    0.0000 N   0  0  0  0  0  0  0  0  0  0  0  0
    0.7500   -1.2990    0.0000 C   0  0  0  0  0  0  0  0  0  0  0  0
    1.5000    0.0000    0.0000 C   0  0  0  0  0  0  0  0  0  0  0  0
    0.7500    1.2990    0.0000 C   0  0  0  0  0  0  0  0  0  0  0  0
    1.5000    2.5981    0.0000 C   0  0  0  0  0  0  0  0  0  0  0  0
    2.2500    3.8971    0.0000 N   0  0  0  0  0  0  0  0  0  0  0  0
   -0.7500    1.2990    0.0000 C   0  0  0  0  0  0  0  0  0  0  0  0
   -1.5000    0.0000    0.0000 C   0  0  0  0  0  0  0  0  0  0  0  0
   -0.7500   -1.2990    0.0000 C   0  0  0  0  0  0  0  0  0  0  0  0
   -1.2135   -2.7256    0.0000 C   0  0  0  0  0  0  0  0  0  0  0  0
   -2.5838   -3.3357    0.0000 C   0  0  0  0  0  0  0  0  0  0  0  0
   -3.7974   -2.4540    0.0000 O   0  0  0  0  0  0  0  0  0  0  0  0
  1  2  1  0
  2  3  1  0
  3  4  2  0
  4  5  1  0
  5  6  2  0
  6  7  1  0
  7  8  2  0
  8  9  1  0
  9 10  1  0
 10 11  2  0
 10 12  1  0
 12 13  1  0
 13 14  1  0
 14 15  1  0
 15 16  1  0
 16 17  2  0
 17 18  1  0
 18 19  2  0
 19 20  1  0
 20 21  1  0
 20 22  1  0
 20 23  1  0
 16 24  1  0
  6 25  1  0
 25 26  1  0
 25 27  1  0
 25 28  1  0
 28 29  1  0
 29 30  1  0
 30 31  2  0
 31 32  1  0
 32 33  1  0
 33 34  3  0
 32 35  2  0
 35 36  1  0
 36 37  2  0
 37 38  1  0
 38 39  1  0
 39 40  2  0
  8  3  1  0
 24 12  1  0
 38 28  2  0
 39  5  1  0
 19 15  1  0
 37 30  1  0
M  END
>  <Compound_ID>  (178) 
CHEMBL3735581

>  <Molecule Name>  (178) 
nan

>  <Molecular Weight>  (178) 
546.55

>  <AlogP>  (178) 
5.28

>  <Smiles>  (178) 
CCc1cc2c(cc1NC(=O)C1CCn3c(nnc3C(F)(F)F)C1)C(C)(C)c1[nH]c3cc(C#N)ccc3c1C2=O

>  <Standard Type>  (178) 
IC50

>  <Standard Relation>  (178) 
'='

>  <Standard Units>  (178) 
nM

>  <Standard Value>  (178) 
38.0

>  <Assay ChEMBL ID>  (178) 
CHEMBL3738493

>  <Assay Description>  (178) 
Inhibition of recombinant ALK (unknown origin) using poly (Glu, Tyr)4:1 substrate incubated for 60 mins by ELISA

>  <BAO Format ID>  (178) 
BAO_0000357

>  <BAO Label>  (178) 
single protein format

>  <Assay Organism>  (178) 
Homo sapiens

>  <Target ChEMBL ID>  (178) 
CHEMBL4247

>  <Target Name>  (178) 
ALK tyrosine kinase receptor

>  <Target Organism>  (178) 
Homo sapiens

>  <Target Type>  (178) 
SINGLE PROTEIN

>  <Document ChEMBL ID>  (178) 
CHEMBL3734710

>  <Source Description>  (178) 
Scientific Literature

>  <Document Journal>  (178) 
Eur J Med Chem

>  <Document Year>  (178) 
2015.0

>  <Active>  (178) 
1.0

>  <bits>  (178) 
<rdkit.DataStructs.cDataStructs.ExplicitBitVect object at 0x000002422C1BA6C0>

>  <Group>  (178) 
G2

$$$$

     RDKit          2D

 32 36  0  0  0  0  0  0  0  0999 V2000
    2.6491   -3.5623    0.0000 C   0  0  0  0  0  0  0  0  0  0  0  0
    1.5000   -2.5981    0.0000 C   0  0  0  0  0  0  0  0  0  0  0  0
    2.6491   -1.6339    0.0000 C   0  0  0  0  0  0  0  0  0  0  0  0
    0.7500   -1.2990    0.0000 C   0  0  0  0  0  0  0  0  0  0  0  0
    1.5000    0.0000    0.0000 C   0  0  0  0  0  0  0  0  0  0  0  0
    0.7500    1.2990    0.0000 C   0  0  0  0  0  0  0  0  0  0  0  0
    1.5000    2.5981    0.0000 N   0  0  0  0  0  0  0  0  0  0  0  0
    3.0000    2.5981    0.0000 C   0  0  0  0  0  0  0  0  0  0  0  0
    3.7500    3.8971    0.0000 C   0  0  0  0  0  0  0  0  0  0  0  0
    3.0000    5.1962    0.0000 N   0  0  0  0  0  0  0  0  0  0  0  0
    3.7500    6.4952    0.0000 S   0  0  0  0  0  0  0  0  0  0  0  0
    4.5000    7.7942    0.0000 N   0  0  0  0  0  0  0  0  0  0  0  0
    2.4510    7.2452    0.0000 O   0  0  0  0  0  0  0  0  0  0  0  0
    5.0490    5.7452    0.0000 O   0  0  0  0  0  0  0  0  0  0  0  0
    1.5000    5.1962    0.0000 C   0  0  0  0  0  0  0  0  0  0  0  0
    0.7500    3.8971    0.0000 C   0  0  0  0  0  0  0  0  0  0  0  0
   -0.7500    1.2990    0.0000 C   0  0  0  0  0  0  0  0  0  0  0  0
   -1.5000    0.0000    0.0000 C   0  0  0  0  0  0  0  0  0  0  0  0
   -0.7500   -1.2990    0.0000 C   0  0  0  0  0  0  0  0  0  0  0  0
   -1.5000   -2.5981    0.0000 C   0  0  0  0  0  0  0  0  0  0  0  0
   -3.0000   -2.5981    0.0000 O   0  0  0  0  0  0  0  0  0  0  0  0
   -0.7500   -3.8971    0.0000 C   0  0  0  0  0  0  0  0  0  0  0  0
    0.7500   -3.8971    0.0000 C   0  0  0  0  0  0  0  0  0  0  0  0
    1.2135   -5.3237    0.0000 N   0  0  0  0  0  0  0  0  0  0  0  0
    0.0000   -6.2054    0.0000 C   0  0  0  0  0  0  0  0  0  0  0  0
   -0.1568   -7.6972    0.0000 C   0  0  0  0  0  0  0  0  0  0  0  0
   -1.5271   -8.3073    0.0000 C   0  0  0  0  0  0  0  0  0  0  0  0
   -1.6839   -9.7990    0.0000 C   0  0  0  0  0  0  0  0  0  0  0  0
   -1.8407  -11.2908    0.0000 N   0  0  0  0  0  0  0  0  0  0  0  0
   -2.7406   -7.4256    0.0000 C   0  0  0  0  0  0  0  0  0  0  0  0
   -2.5838   -5.9338    0.0000 C   0  0  0  0  0  0  0  0  0  0  0  0
   -1.2135   -5.3237    0.0000 C   0  0  0  0  0  0  0  0  0  0  0  0
  1  2  1  0
  2  3  1  0
  2  4  1  0
  4  5  2  0
  5  6  1  0
  6  7  1  0
  7  8  1  0
  8  9  1  0
  9 10  1  0
 10 11  1  0
 11 12  1  0
 11 13  2  0
 11 14  2  0
 10 15  1  0
 15 16  1  0
  6 17  2  0
 17 18  1  0
 18 19  2  0
 19 20  1  0
 20 21  2  0
 20 22  1  0
 22 23  2  0
 23 24  1  0
 24 25  1  0
 25 26  2  0
 26 27  1  0
 27 28  1  0
 28 29  3  0
 27 30  2  0
 30 31  1  0
 31 32  2  0
 23  2  1  0
 32 25  1  0
 19  4  1  0
 32 22  1  0
 16  7  1  0
M  END
>  <Compound_ID>  (179) 
CHEMBL3961322

>  <Molecule Name>  (179) 
nan

>  <Molecular Weight>  (179) 
449.54

>  <AlogP>  (179) 
2.24

>  <Smiles>  (179) 
CC1(C)c2cc(N3CCN(S(N)(=O)=O)CC3)ccc2C(=O)c2c1[nH]c1cc(C#N)ccc21

>  <Standard Type>  (179) 
IC50

>  <Standard Relation>  (179) 
'='

>  <Standard Units>  (179) 
nM

>  <Standard Value>  (179) 
3.184

>  <Assay ChEMBL ID>  (179) 
CHEMBL3887074

>  <Assay Description>  (179) 
Inhibition Assay: ALK-inhibiting activity was measured by following an activity of inhibiting phosphorylation by biotinylated peptide (EGPWLEEEEEAYGWMDF). For the detection of phosphorylation of the biotinylated peptide, time-resolved fluorescence measurement was performed using an anti-phosphorylated tyrosine antibody labeled with europium cryptate and streptavidin conjugated to XL665, i.e., an allophycocyanin derivative.

>  <BAO Format ID>  (179) 
BAO_0000357

>  <BAO Label>  (179) 
single protein format

>  <Assay Organism>  (179) 
Homo sapiens

>  <Target ChEMBL ID>  (179) 
CHEMBL4247

>  <Target Name>  (179) 
ALK tyrosine kinase receptor

>  <Target Organism>  (179) 
Homo sapiens

>  <Target Type>  (179) 
SINGLE PROTEIN

>  <Document ChEMBL ID>  (179) 
CHEMBL3886150

>  <Source Description>  (179) 
BindingDB Database

>  <Document Journal>  (179) 
nan

>  <Document Year>  (179) 
2015.0

>  <Active>  (179) 
1.0

>  <bits>  (179) 
<rdkit.DataStructs.cDataStructs.ExplicitBitVect object at 0x000002422C1B9C40>

>  <Group>  (179) 
G2

$$$$

     RDKit          2D

 34 38  0  0  0  0  0  0  0  0999 V2000
   -8.0346   -3.5760    0.0000 N   0  0  0  0  0  0  0  0  0  0  0  0
   -6.9199   -4.5797    0.0000 C   0  0  0  0  0  0  0  0  0  0  0  0
   -7.2317   -6.0469    0.0000 O   0  0  0  0  0  0  0  0  0  0  0  0
   -5.4933   -4.1162    0.0000 C   0  0  0  0  0  0  0  0  0  0  0  0
   -5.1814   -2.6490    0.0000 C   0  0  0  0  0  0  0  0  0  0  0  0
   -3.7548   -2.1855    0.0000 C   0  0  0  0  0  0  0  0  0  0  0  0
   -2.6401   -3.1891    0.0000 C   0  0  0  0  0  0  0  0  0  0  0  0
   -1.2135   -2.7256    0.0000 N   0  0  0  0  0  0  0  0  0  0  0  0
   -0.0000   -3.6073    0.0000 C   0  0  0  0  0  0  0  0  0  0  0  0
   -0.0000   -5.1073    0.0000 N   0  0  0  0  0  0  0  0  0  0  0  0
    1.2990   -5.8573    0.0000 C   0  0  0  0  0  0  0  0  0  0  0  0
    2.5981   -5.1073    0.0000 O   0  0  0  0  0  0  0  0  0  0  0  0
    1.2990   -7.3573    0.0000 C   0  0  0  0  0  0  0  0  0  0  0  0
   -0.0000   -8.1073    0.0000 C   0  0  0  0  0  0  0  0  0  0  0  0
   -0.0000   -9.6073    0.0000 C   0  0  0  0  0  0  0  0  0  0  0  0
    1.2990  -10.3573    0.0000 C   0  0  0  0  0  0  0  0  0  0  0  0
    2.5981   -9.6073    0.0000 C   0  0  0  0  0  0  0  0  0  0  0  0
    2.5981   -8.1073    0.0000 C   0  0  0  0  0  0  0  0  0  0  0  0
    1.2135   -2.7256    0.0000 N   0  0  0  0  0  0  0  0  0  0  0  0
    0.7500   -1.2990    0.0000 C   0  0  0  0  0  0  0  0  0  0  0  0
    1.5000    0.0000    0.0000 C   0  0  0  0  0  0  0  0  0  0  0  0
    0.7500    1.2990    0.0000 C   0  0  0  0  0  0  0  0  0  0  0  0
   -0.7500    1.2990    0.0000 C   0  0  0  0  0  0  0  0  0  0  0  0
   -1.5000    2.5981    0.0000 C   0  0  0  0  0  0  0  0  0  0  0  0
   -0.7500    3.8971    0.0000 N   0  0  0  0  0  0  0  0  0  0  0  0
    0.7500    3.8971    0.0000 C   0  0  0  0  0  0  0  0  0  0  0  0
    1.5000    5.1962    0.0000 C   0  0  0  0  0  0  0  0  0  0  0  0
    0.7500    6.4952    0.0000 C   0  0  0  0  0  0  0  0  0  0  0  0
   -0.7500    6.4952    0.0000 C   0  0  0  0  0  0  0  0  0  0  0  0
   -1.5000    5.1962    0.0000 C   0  0  0  0  0  0  0  0  0  0  0  0
   -1.5000    0.0000    0.0000 C   0  0  0  0  0  0  0  0  0  0  0  0
   -0.7500   -1.2990    0.0000 C   0  0  0  0  0  0  0  0  0  0  0  0
   -2.9520   -4.6564    0.0000 C   0  0  0  0  0  0  0  0  0  0  0  0
   -4.3786   -5.1199    0.0000 C   0  0  0  0  0  0  0  0  0  0  0  0
  1  2  1  0
  2  3  2  0
  4  2  1  1
  4  5  1  0
  5  6  1  0
  6  7  1  0
  7  8  1  1
  8  9  1  0
  9 10  2  0
 10 11  1  0
 11 12  2  0
 11 13  1  0
 13 14  2  0
 14 15  1  0
 15 16  2  0
 16 17  1  0
 17 18  2  0
  9 19  1  0
 19 20  1  0
 20 21  2  0
 21 22  1  0
 22 23  2  0
 23 24  1  0
 24 25  1  0
 25 26  1  0
 26 27  1  0
 27 28  1  0
 28 29  1  0
 29 30  1  0
 23 31  1  0
 31 32  2  0
  7 33  1  0
 33 34  1  0
 34  4  1  0
 32  8  1  0
 18 13  1  0
 32 20  1  0
 30 25  1  0
M  END
>  <Compound_ID>  (180) 
CHEMBL2172327

>  <Molecule Name>  (180) 
nan

>  <Molecular Weight>  (180) 
459.59

>  <AlogP>  (180) 
3.91

>  <Smiles>  (180) 
NC(=O)[C@H]1CC[C@@H](n2/c(=N/C(=O)c3ccccc3)[nH]c3ccc(CN4CCCCC4)cc32)CC1

>  <Standard Type>  (180) 
IC50

>  <Standard Relation>  (180) 
'='

>  <Standard Units>  (180) 
nM

>  <Standard Value>  (180) 
18.0

>  <Assay ChEMBL ID>  (180) 
CHEMBL2176371

>  <Assay Description>  (180) 
Inhibition of ALK enzyme

>  <BAO Format ID>  (180) 
BAO_0000357

>  <BAO Label>  (180) 
single protein format

>  <Assay Organism>  (180) 
None

>  <Target ChEMBL ID>  (180) 
CHEMBL4247

>  <Target Name>  (180) 
ALK tyrosine kinase receptor

>  <Target Organism>  (180) 
Homo sapiens

>  <Target Type>  (180) 
SINGLE PROTEIN

>  <Document ChEMBL ID>  (180) 
CHEMBL2169770

>  <Source Description>  (180) 
Scientific Literature

>  <Document Journal>  (180) 
J Med Chem

>  <Document Year>  (180) 
2012.0

>  <Active>  (180) 
1.0

>  <bits>  (180) 
<rdkit.DataStructs.cDataStructs.ExplicitBitVect object at 0x000002422C1BB1B0>

>  <Group>  (180) 
G2

$$$$

     RDKit          2D

 38 43  0  0  0  0  0  0  0  0999 V2000
   -6.8516   -6.6578    0.0000 C   0  0  0  0  0  0  0  0  0  0  0  0
   -5.6381   -7.5395    0.0000 C   0  0  0  0  0  0  0  0  0  0  0  0
   -4.2677   -6.9294    0.0000 C   0  0  0  0  0  0  0  0  0  0  0  0
   -4.1110   -5.4376    0.0000 C   0  0  0  0  0  0  0  0  0  0  0  0
   -2.7406   -4.8275    0.0000 C   0  0  0  0  0  0  0  0  0  0  0  0
   -1.5271   -5.7092    0.0000 C   0  0  0  0  0  0  0  0  0  0  0  0
   -1.6839   -7.2010    0.0000 C   0  0  0  0  0  0  0  0  0  0  0  0
   -3.0542   -7.8111    0.0000 C   0  0  0  0  0  0  0  0  0  0  0  0
   -3.2110   -9.3029    0.0000 C   0  0  0  0  0  0  0  0  0  0  0  0
   -4.5813   -9.9130    0.0000 C   0  0  0  0  0  0  0  0  0  0  0  0
   -4.7381  -11.4047    0.0000 C   0  0  0  0  0  0  0  0  0  0  0  0
   -3.5246  -12.2864    0.0000 N   0  0  0  0  0  0  0  0  0  0  0  0
   -3.6814  -13.7782    0.0000 C   0  0  0  0  0  0  0  0  0  0  0  0
   -2.4679  -14.6599    0.0000 O   0  0  0  0  0  0  0  0  0  0  0  0
   -5.0517  -14.3883    0.0000 C   0  0  0  0  0  0  0  0  0  0  0  0
   -6.2652  -13.5066    0.0000 C   0  0  0  0  0  0  0  0  0  0  0  0
   -7.6356  -14.1167    0.0000 O   0  0  0  0  0  0  0  0  0  0  0  0
   -7.7923  -15.6085    0.0000 C   0  0  0  0  0  0  0  0  0  0  0  0
   -6.5788  -16.4902    0.0000 C   0  0  0  0  0  0  0  0  0  0  0  0
   -5.2085  -15.8801    0.0000 N   0  0  0  0  0  0  0  0  0  0  0  0
   -2.1543  -11.6763    0.0000 C   0  0  0  0  0  0  0  0  0  0  0  0
   -1.9975  -10.1845    0.0000 C   0  0  0  0  0  0  0  0  0  0  0  0
   -0.1568   -5.0991    0.0000 C   0  0  0  0  0  0  0  0  0  0  0  0
    1.3396   -4.9944    0.0000 C   0  0  0  0  0  0  0  0  0  0  0  0
    0.2061   -6.5545    0.0000 C   0  0  0  0  0  0  0  0  0  0  0  0
   -0.0000   -3.6073    0.0000 C   0  0  0  0  0  0  0  0  0  0  0  0
    1.2135   -2.7256    0.0000 N   0  0  0  0  0  0  0  0  0  0  0  0
    0.7500   -1.2990    0.0000 C   0  0  0  0  0  0  0  0  0  0  0  0
    1.5000    0.0000    0.0000 C   0  0  0  0  0  0  0  0  0  0  0  0
    0.7500    1.2990    0.0000 C   0  0  0  0  0  0  0  0  0  0  0  0
    1.5000    2.5981    0.0000 C   0  0  0  0  0  0  0  0  0  0  0  0
    2.2500    3.8971    0.0000 N   0  0  0  0  0  0  0  0  0  0  0  0
   -0.7500    1.2990    0.0000 C   0  0  0  0  0  0  0  0  0  0  0  0
   -1.5000    0.0000    0.0000 C   0  0  0  0  0  0  0  0  0  0  0  0
   -0.7500   -1.2990    0.0000 C   0  0  0  0  0  0  0  0  0  0  0  0
   -1.2135   -2.7256    0.0000 C   0  0  0  0  0  0  0  0  0  0  0  0
   -2.5838   -3.3357    0.0000 C   0  0  0  0  0  0  0  0  0  0  0  0
   -3.7974   -2.4540    0.0000 O   0  0  0  0  0  0  0  0  0  0  0  0
  1  2  1  0
  2  3  1  0
  3  4  2  0
  4  5  1  0
  5  6  2  0
  6  7  1  0
  7  8  2  0
  8  9  1  0
  9 10  2  0
 10 11  1  0
 11 12  1  0
 12 13  1  0
 13 14  2  0
 13 15  1  0
 15 16  1  0
 16 17  1  0
 17 18  1  0
 18 19  1  0
 19 20  1  0
 12 21  1  0
 21 22  1  0
  6 23  1  0
 23 24  1  0
 23 25  1  0
 23 26  1  0
 26 27  1  0
 27 28  1  0
 28 29  2  0
 29 30  1  0
 30 31  1  0
 31 32  3  0
 30 33  2  0
 33 34  1  0
 34 35  2  0
 35 36  1  0
 36 37  1  0
 37 38  2  0
  8  3  1  0
 22  9  1  0
 36 26  2  0
 37  5  1  0
 20 15  1  0
 35 28  1  0
M  END
>  <Compound_ID>  (181) 
CHEMBL3735314

>  <Molecule Name>  (181) 
nan

>  <Molecular Weight>  (181) 
508.62

>  <AlogP>  (181) 
4.08

>  <Smiles>  (181) 
CCc1cc2c(cc1C1=CCN(C(=O)C3COCCN3)CC1)C(C)(C)c1[nH]c3cc(C#N)ccc3c1C2=O

>  <Standard Type>  (181) 
IC50

>  <Standard Relation>  (181) 
'='

>  <Standard Units>  (181) 
nM

>  <Standard Value>  (181) 
3.8

>  <Assay ChEMBL ID>  (181) 
CHEMBL3738494

>  <Assay Description>  (181) 
Inhibition of gatekeeper ALK L1196M mutant (unknown origin) using poly (Glu, Tyr)4:1 substrate incubated for 60 mins by ELISA

>  <BAO Format ID>  (181) 
BAO_0000357

>  <BAO Label>  (181) 
single protein format

>  <Assay Organism>  (181) 
Homo sapiens

>  <Target ChEMBL ID>  (181) 
CHEMBL4247

>  <Target Name>  (181) 
ALK tyrosine kinase receptor

>  <Target Organism>  (181) 
Homo sapiens

>  <Target Type>  (181) 
SINGLE PROTEIN

>  <Document ChEMBL ID>  (181) 
CHEMBL3734710

>  <Source Description>  (181) 
Scientific Literature

>  <Document Journal>  (181) 
Eur J Med Chem

>  <Document Year>  (181) 
2015.0

>  <Active>  (181) 
1.0

>  <bits>  (181) 
<rdkit.DataStructs.cDataStructs.ExplicitBitVect object at 0x000002422C1BA7A0>

>  <Group>  (181) 
G2

$$$$

     RDKit          2D

 38 44  0  0  0  0  0  0  0  0999 V2000
   -6.8516   -6.6578    0.0000 C   0  0  0  0  0  0  0  0  0  0  0  0
   -5.6381   -7.5395    0.0000 C   0  0  0  0  0  0  0  0  0  0  0  0
   -4.2677   -6.9294    0.0000 C   0  0  0  0  0  0  0  0  0  0  0  0
   -4.1110   -5.4376    0.0000 C   0  0  0  0  0  0  0  0  0  0  0  0
   -2.7406   -4.8275    0.0000 C   0  0  0  0  0  0  0  0  0  0  0  0
   -1.5271   -5.7092    0.0000 C   0  0  0  0  0  0  0  0  0  0  0  0
   -1.6839   -7.2010    0.0000 C   0  0  0  0  0  0  0  0  0  0  0  0
   -3.0542   -7.8111    0.0000 C   0  0  0  0  0  0  0  0  0  0  0  0
   -3.2110   -9.3029    0.0000 N   0  0  0  0  0  0  0  0  0  0  0  0
   -2.0963  -10.3066    0.0000 C   0  0  0  0  0  0  0  0  0  0  0  0
   -2.7064  -11.6769    0.0000 C   0  0  0  0  0  0  0  0  0  0  0  0
   -4.1982  -11.5201    0.0000 C   0  0  0  0  0  0  0  0  0  0  0  0
   -4.5101  -10.0529    0.0000 C   0  0  0  0  0  0  0  0  0  0  0  0
   -5.1202  -11.4232    0.0000 C   0  0  0  0  0  0  0  0  0  0  0  0
   -4.0054  -12.4269    0.0000 N   0  0  0  0  0  0  0  0  0  0  0  0
   -4.1622  -13.9187    0.0000 C   0  0  0  0  0  0  0  0  0  0  0  0
   -5.5326  -14.5288    0.0000 C   0  0  0  0  0  0  0  0  0  0  0  0
   -6.7461  -13.6471    0.0000 C   0  0  0  0  0  0  0  0  0  0  0  0
   -8.1164  -14.2572    0.0000 C   0  0  0  0  0  0  0  0  0  0  0  0
   -8.2732  -15.7490    0.0000 O   0  0  0  0  0  0  0  0  0  0  0  0
   -7.0597  -16.6306    0.0000 C   0  0  0  0  0  0  0  0  0  0  0  0
   -5.6893  -16.0205    0.0000 C   0  0  0  0  0  0  0  0  0  0  0  0
   -0.1568   -5.0991    0.0000 C   0  0  0  0  0  0  0  0  0  0  0  0
    1.3396   -4.9944    0.0000 C   0  0  0  0  0  0  0  0  0  0  0  0
    0.2061   -6.5545    0.0000 C   0  0  0  0  0  0  0  0  0  0  0  0
   -0.0000   -3.6073    0.0000 C   0  0  0  0  0  0  0  0  0  0  0  0
    1.2135   -2.7256    0.0000 N   0  0  0  0  0  0  0  0  0  0  0  0
    0.7500   -1.2990    0.0000 C   0  0  0  0  0  0  0  0  0  0  0  0
    1.5000    0.0000    0.0000 C   0  0  0  0  0  0  0  0  0  0  0  0
    0.7500    1.2990    0.0000 C   0  0  0  0  0  0  0  0  0  0  0  0
    1.5000    2.5981    0.0000 C   0  0  0  0  0  0  0  0  0  0  0  0
    2.2500    3.8971    0.0000 N   0  0  0  0  0  0  0  0  0  0  0  0
   -0.7500    1.2990    0.0000 C   0  0  0  0  0  0  0  0  0  0  0  0
   -1.5000    0.0000    0.0000 C   0  0  0  0  0  0  0  0  0  0  0  0
   -0.7500   -1.2990    0.0000 C   0  0  0  0  0  0  0  0  0  0  0  0
   -1.2135   -2.7256    0.0000 C   0  0  0  0  0  0  0  0  0  0  0  0
   -2.5838   -3.3357    0.0000 C   0  0  0  0  0  0  0  0  0  0  0  0
   -3.7974   -2.4540    0.0000 O   0  0  0  0  0  0  0  0  0  0  0  0
  1  2  1  0
  2  3  1  0
  3  4  1  0
  4  5  2  0
  5  6  1  0
  6  7  2  0
  7  8  1  0
  8  9  1  0
  9 10  1  0
 10 11  1  0
 11 12  1  0
 12 13  1  0
 13 14  1  0
 14 15  1  0
 15 16  1  0
 16 17  1  0
 17 18  1  0
 18 19  1  0
 19 20  1  0
 20 21  1  0
 21 22  1  0
  6 23  1  0
 23 24  1  0
 23 25  1  0
 23 26  1  0
 26 27  1  0
 27 28  1  0
 28 29  2  0
 29 30  1  0
 30 31  1  0
 31 32  3  0
 30 33  2  0
 33 34  1  0
 34 35  2  0
 35 36  1  0
 36 37  1  0
 37 38  2  0
  8  3  2  0
 13  9  1  0
 22 17  1  0
 36 26  2  0
 37  5  1  0
 15 11  1  0
 35 28  1  0
M  END
>  <Compound_ID>  (182) 
CHEMBL3734855

>  <Molecule Name>  (182) 
nan

>  <Molecular Weight>  (182) 
508.67

>  <AlogP>  (182) 
5.16

>  <Smiles>  (182) 
CCc1cc2c(cc1N1CC3CC1CN3CC1CCOCC1)C(C)(C)c1[nH]c3cc(C#N)ccc3c1C2=O

>  <Standard Type>  (182) 
IC50

>  <Standard Relation>  (182) 
'='

>  <Standard Units>  (182) 
nM

>  <Standard Value>  (182) 
6.6

>  <Assay ChEMBL ID>  (182) 
CHEMBL3738493

>  <Assay Description>  (182) 
Inhibition of recombinant ALK (unknown origin) using poly (Glu, Tyr)4:1 substrate incubated for 60 mins by ELISA

>  <BAO Format ID>  (182) 
BAO_0000357

>  <BAO Label>  (182) 
single protein format

>  <Assay Organism>  (182) 
Homo sapiens

>  <Target ChEMBL ID>  (182) 
CHEMBL4247

>  <Target Name>  (182) 
ALK tyrosine kinase receptor

>  <Target Organism>  (182) 
Homo sapiens

>  <Target Type>  (182) 
SINGLE PROTEIN

>  <Document ChEMBL ID>  (182) 
CHEMBL3734710

>  <Source Description>  (182) 
Scientific Literature

>  <Document Journal>  (182) 
Eur J Med Chem

>  <Document Year>  (182) 
2015.0

>  <Active>  (182) 
1.0

>  <bits>  (182) 
<rdkit.DataStructs.cDataStructs.ExplicitBitVect object at 0x000002422C1BAEA0>

>  <Group>  (182) 
G2

$$$$

     RDKit          2D

 35 40  0  0  0  0  0  0  0  0999 V2000
    1.3396   -4.9944    0.0000 C   0  0  0  0  0  0  0  0  0  0  0  0
   -0.1568   -5.0991    0.0000 C   0  0  0  0  0  0  0  0  0  0  0  0
    0.2061   -6.5545    0.0000 C   0  0  0  0  0  0  0  0  0  0  0  0
   -1.5271   -5.7092    0.0000 C   0  0  0  0  0  0  0  0  0  0  0  0
   -1.6839   -7.2010    0.0000 C   0  0  0  0  0  0  0  0  0  0  0  0
   -3.0542   -7.8111    0.0000 C   0  0  0  0  0  0  0  0  0  0  0  0
   -3.2110   -9.3029    0.0000 N   0  0  0  0  0  0  0  0  0  0  0  0
   -4.5813   -9.9130    0.0000 C   0  0  0  0  0  0  0  0  0  0  0  0
   -4.7381  -11.4047    0.0000 C   0  0  0  0  0  0  0  0  0  0  0  0
   -3.5246  -12.2864    0.0000 C   0  0  0  0  0  0  0  0  0  0  0  0
   -3.6814  -13.7782    0.0000 N   0  0  0  0  0  0  0  0  0  0  0  0
   -5.0517  -14.3883    0.0000 C   0  0  0  0  0  0  0  0  0  0  0  0
   -5.2085  -15.8801    0.0000 C   0  0  0  0  0  0  0  0  0  0  0  0
   -3.9950  -16.7618    0.0000 O   0  0  0  0  0  0  0  0  0  0  0  0
   -2.6247  -16.1517    0.0000 C   0  0  0  0  0  0  0  0  0  0  0  0
   -2.4679  -14.6599    0.0000 C   0  0  0  0  0  0  0  0  0  0  0  0
   -2.1543  -11.6763    0.0000 C   0  0  0  0  0  0  0  0  0  0  0  0
   -1.9975  -10.1845    0.0000 C   0  0  0  0  0  0  0  0  0  0  0  0
   -4.2677   -6.9294    0.0000 C   0  0  0  0  0  0  0  0  0  0  0  0
   -5.6381   -7.5395    0.0000 Cl  0  0  0  0  0  0  0  0  0  0  0  0
   -4.1110   -5.4376    0.0000 C   0  0  0  0  0  0  0  0  0  0  0  0
   -2.7406   -4.8275    0.0000 C   0  0  0  0  0  0  0  0  0  0  0  0
   -2.5838   -3.3357    0.0000 C   0  0  0  0  0  0  0  0  0  0  0  0
   -3.7974   -2.4540    0.0000 O   0  0  0  0  0  0  0  0  0  0  0  0
   -1.2135   -2.7256    0.0000 C   0  0  0  0  0  0  0  0  0  0  0  0
   -0.0000   -3.6073    0.0000 C   0  0  0  0  0  0  0  0  0  0  0  0
    1.2135   -2.7256    0.0000 N   0  0  0  0  0  0  0  0  0  0  0  0
    0.7500   -1.2990    0.0000 C   0  0  0  0  0  0  0  0  0  0  0  0
    1.5000    0.0000    0.0000 C   0  0  0  0  0  0  0  0  0  0  0  0
    0.7500    1.2990    0.0000 C   0  0  0  0  0  0  0  0  0  0  0  0
    1.5000    2.5981    0.0000 C   0  0  0  0  0  0  0  0  0  0  0  0
    2.2500    3.8971    0.0000 N   0  0  0  0  0  0  0  0  0  0  0  0
   -0.7500    1.2990    0.0000 C   0  0  0  0  0  0  0  0  0  0  0  0
   -1.5000    0.0000    0.0000 C   0  0  0  0  0  0  0  0  0  0  0  0
   -0.7500   -1.2990    0.0000 C   0  0  0  0  0  0  0  0  0  0  0  0
  1  2  1  0
  2  3  1  0
  2  4  1  0
  4  5  2  0
  5  6  1  0
  6  7  1  0
  7  8  1  0
  8  9  1  0
  9 10  1  0
 10 11  1  0
 11 12  1  0
 12 13  1  0
 13 14  1  0
 14 15  1  0
 15 16  1  0
 10 17  1  0
 17 18  1  0
  6 19  2  0
 19 20  1  0
 19 21  1  0
 21 22  2  0
 22 23  1  0
 23 24  2  0
 23 25  1  0
 25 26  2  0
 26 27  1  0
 27 28  1  0
 28 29  2  0
 29 30  1  0
 30 31  1  0
 31 32  3  0
 30 33  2  0
 33 34  1  0
 34 35  2  0
 26  2  1  0
 35 28  1  0
 22  4  1  0
 35 25  1  0
 18  7  1  0
 16 11  1  0
M  END
>  <Compound_ID>  (183) 
CHEMBL3944715

>  <Molecule Name>  (183) 
nan

>  <Molecular Weight>  (183) 
489.02

>  <AlogP>  (183) 
4.86

>  <Smiles>  (183) 
CC1(C)c2cc(N3CCC(N4CCOCC4)CC3)c(Cl)cc2C(=O)c2c1[nH]c1cc(C#N)ccc21

>  <Standard Type>  (183) 
IC50

>  <Standard Relation>  (183) 
'='

>  <Standard Units>  (183) 
nM

>  <Standard Value>  (183) 
0.391

>  <Assay ChEMBL ID>  (183) 
CHEMBL3887074

>  <Assay Description>  (183) 
Inhibition Assay: ALK-inhibiting activity was measured by following an activity of inhibiting phosphorylation by biotinylated peptide (EGPWLEEEEEAYGWMDF). For the detection of phosphorylation of the biotinylated peptide, time-resolved fluorescence measurement was performed using an anti-phosphorylated tyrosine antibody labeled with europium cryptate and streptavidin conjugated to XL665, i.e., an allophycocyanin derivative.

>  <BAO Format ID>  (183) 
BAO_0000357

>  <BAO Label>  (183) 
single protein format

>  <Assay Organism>  (183) 
Homo sapiens

>  <Target ChEMBL ID>  (183) 
CHEMBL4247

>  <Target Name>  (183) 
ALK tyrosine kinase receptor

>  <Target Organism>  (183) 
Homo sapiens

>  <Target Type>  (183) 
SINGLE PROTEIN

>  <Document ChEMBL ID>  (183) 
CHEMBL3886150

>  <Source Description>  (183) 
BindingDB Database

>  <Document Journal>  (183) 
nan

>  <Document Year>  (183) 
2015.0

>  <Active>  (183) 
1.0

>  <bits>  (183) 
<rdkit.DataStructs.cDataStructs.ExplicitBitVect object at 0x000002422C1BB610>

>  <Group>  (183) 
G2

$$$$

     RDKit          2D

 47 51  0  0  0  0  0  0  0  0999 V2000
    3.7500   -1.2990    0.0000 C   0  0  0  0  0  0  0  0  0  0  0  0
    3.0000    0.0000    0.0000 O   0  0  0  0  0  0  0  0  0  0  0  0
    1.5000    0.0000    0.0000 C   0  0  0  0  0  0  0  0  0  0  0  0
    0.7500   -1.2990    0.0000 C   0  0  0  0  0  0  0  0  0  0  0  0
   -0.7500   -1.2990    0.0000 C   0  0  0  0  0  0  0  0  0  0  0  0
   -1.5000   -2.5981    0.0000 N   0  0  0  0  0  0  0  0  0  0  0  0
   -3.0000   -2.5981    0.0000 C   0  0  0  0  0  0  0  0  0  0  0  0
   -3.7500   -3.8971    0.0000 C   0  0  0  0  0  0  0  0  0  0  0  0
   -3.0000   -5.1962    0.0000 N   0  0  0  0  0  0  0  0  0  0  0  0
   -3.7500   -6.4952    0.0000 C   0  0  0  0  0  0  0  0  0  0  0  0
   -3.0000   -7.7942    0.0000 O   0  0  0  0  0  0  0  0  0  0  0  0
   -5.2500   -6.4952    0.0000 O   0  0  0  0  0  0  0  0  0  0  0  0
   -6.0000   -7.7942    0.0000 C   0  0  0  0  0  0  0  0  0  0  0  0
   -7.2990   -7.0442    0.0000 C   0  0  0  0  0  0  0  0  0  0  0  0
   -4.7010   -8.5442    0.0000 C   0  0  0  0  0  0  0  0  0  0  0  0
   -6.7500   -9.0933    0.0000 C   0  0  0  0  0  0  0  0  0  0  0  0
   -1.5000   -5.1962    0.0000 C   0  0  0  0  0  0  0  0  0  0  0  0
   -0.7500   -3.8971    0.0000 C   0  0  0  0  0  0  0  0  0  0  0  0
   -1.5000    0.0000    0.0000 C   0  0  0  0  0  0  0  0  0  0  0  0
   -0.7500    1.2990    0.0000 C   0  0  0  0  0  0  0  0  0  0  0  0
    0.7500    1.2990    0.0000 C   0  0  0  0  0  0  0  0  0  0  0  0
    1.5000    2.5981    0.0000 N   0  0  0  0  0  0  0  0  0  0  0  0
    3.0000    2.5981    0.0000 C   0  0  0  0  0  0  0  0  0  0  0  0
    3.7500    1.2990    0.0000 N   0  0  0  0  0  0  0  0  0  0  0  0
    5.2500    1.2990    0.0000 C   0  0  0  0  0  0  0  0  0  0  0  0
    6.0000    2.5981    0.0000 C   0  0  0  0  0  0  0  0  0  0  0  0
    7.5000    2.5981    0.0000 Cl  0  0  0  0  0  0  0  0  0  0  0  0
    5.2500    3.8971    0.0000 C   0  0  0  0  0  0  0  0  0  0  0  0
    6.0000    5.1962    0.0000 N   0  0  0  0  0  0  0  0  0  0  0  0
    5.2500    6.4952    0.0000 C   0  0  0  0  0  0  0  0  0  0  0  0
    6.0000    7.7942    0.0000 C   0  0  0  0  0  0  0  0  0  0  0  0
    5.2500    9.0933    0.0000 C   0  0  0  0  0  0  0  0  0  0  0  0
    3.7500    9.0933    0.0000 C   0  0  0  0  0  0  0  0  0  0  0  0
    3.0000   10.3923    0.0000 N   0  0  0  0  0  0  0  0  0  0  0  0
    3.7500   11.6913    0.0000 C   0  0  0  0  0  0  0  0  0  0  0  0
    3.0000   12.9904    0.0000 C   0  0  0  0  0  0  0  0  0  0  0  0
    1.5000   12.9904    0.0000 N   0  0  0  0  0  0  0  0  0  0  0  0
    0.7500   14.2894    0.0000 C   0  0  0  0  0  0  0  0  0  0  0  0
    1.5000   15.5885    0.0000 C   0  0  0  0  0  0  0  0  0  0  0  0
   -0.7500   14.2894    0.0000 O   0  0  0  0  0  0  0  0  0  0  0  0
    0.7500   11.6913    0.0000 C   0  0  0  0  0  0  0  0  0  0  0  0
    1.5000   10.3923    0.0000 C   0  0  0  0  0  0  0  0  0  0  0  0
    3.0000    7.7942    0.0000 C   0  0  0  0  0  0  0  0  0  0  0  0
    3.7500    6.4952    0.0000 C   0  0  0  0  0  0  0  0  0  0  0  0
    3.0000    5.1962    0.0000 O   0  0  0  0  0  0  0  0  0  0  0  0
    1.5000    5.1962    0.0000 C   0  0  0  0  0  0  0  0  0  0  0  0
    3.7500    3.8971    0.0000 N   0  0  0  0  0  0  0  0  0  0  0  0
  1  2  1  0
  2  3  1  0
  3  4  2  0
  4  5  1  0
  5  6  1  0
  6  7  1  0
  7  8  1  0
  8  9  1  0
  9 10  1  0
 10 11  2  0
 10 12  1  0
 12 13  1  0
 13 14  1  0
 13 15  1  0
 13 16  1  0
  9 17  1  0
 17 18  1  0
  5 19  2  0
 19 20  1  0
 20 21  2  0
 21 22  1  0
 22 23  1  0
 23 24  2  0
 24 25  1  0
 25 26  2  0
 26 27  1  0
 26 28  1  0
 28 29  1  0
 29 30  1  0
 30 31  2  0
 31 32  1  0
 32 33  2  0
 33 34  1  0
 34 35  1  0
 35 36  1  0
 36 37  1  0
 37 38  1  0
 38 39  1  0
 38 40  2  0
 37 41  1  0
 41 42  1  0
 33 43  1  0
 43 44  2  0
 44 45  1  0
 45 46  1  0
 28 47  2  0
 21  3  1  0
 47 23  1  0
 18  6  1  0
 44 30  1  0
 42 34  1  0
M  END
>  <Compound_ID>  (184) 
CHEMBL3913998

>  <Molecule Name>  (184) 
nan

>  <Molecular Weight>  (184) 
667.21

>  <AlogP>  (184) 
5.36

>  <Smiles>  (184) 
COc1cc(N2CCN(C(=O)OC(C)(C)C)CC2)ccc1Nc1ncc(Cl)c(Nc2ccc(N3CCN(C(C)=O)CC3)cc2OC)n1

>  <Standard Type>  (184) 
IC50

>  <Standard Relation>  (184) 
'='

>  <Standard Units>  (184) 
nM

>  <Standard Value>  (184) 
25.0

>  <Assay ChEMBL ID>  (184) 
CHEMBL3887132

>  <Assay Description>  (184) 
Homogeneous Time-resolved fluorescence (HTRF) Assay: In order to measure the inhibitory activity against ALK, a Grainer 96-well round type bottom plate was added with the compounds (2 μl) prepared in Examples 1 to 89, and mixed with ALK enzyme (1 ul) and a peptide substrate (2 μl) with biotin attached thereto for 15 minutes and cultured thereafter. Here, ATP solution (5 μl) was added thereto and kinase reaction was performed at room temperature for 30 minutes. XL 665 (5 μl), to which Streptavidin dissolved in ethylenediaminetetraacetic acid solution was attached, anti-phosphotyrosine antibody (5 μl), to which europium (Eu3+) was attached, were added to a reaction solution to stop the reaction, cultured for 1 hour, and analyzed using Homogeneous Time-resolved fluorescence (HTRF, Cisbio). The result was read by a Wallac Envision 2103 device at the wavelength range of 615/665 nm.

>  <BAO Format ID>  (184) 
BAO_0000357

>  <BAO Label>  (184) 
single protein format

>  <Assay Organism>  (184) 
Homo sapiens

>  <Target ChEMBL ID>  (184) 
CHEMBL4247

>  <Target Name>  (184) 
ALK tyrosine kinase receptor

>  <Target Organism>  (184) 
Homo sapiens

>  <Target Type>  (184) 
SINGLE PROTEIN

>  <Document ChEMBL ID>  (184) 
CHEMBL3886178

>  <Source Description>  (184) 
BindingDB Database

>  <Document Journal>  (184) 
nan

>  <Document Year>  (184) 
2015.0

>  <Active>  (184) 
1.0

>  <bits>  (184) 
<rdkit.DataStructs.cDataStructs.ExplicitBitVect object at 0x000002422C1BB990>

>  <Group>  (184) 
G2

$$$$

     RDKit          2D

 24 27  0  0  0  0  0  0  0  0999 V2000
    3.7500   -1.2990    0.0000 C   0  0  0  0  0  0  0  0  0  0  0  0
    3.0000    0.0000    0.0000 C   0  0  0  0  0  0  0  0  0  0  0  0
    1.5000    0.0000    0.0000 C   0  0  0  0  0  0  0  0  0  0  0  0
    0.7500   -1.2990    0.0000 C   0  0  0  0  0  0  0  0  0  0  0  0
   -0.7500   -1.2990    0.0000 C   0  0  0  0  0  0  0  0  0  0  0  0
   -1.5000    0.0000    0.0000 C   0  0  0  0  0  0  0  0  0  0  0  0
   -0.7500    1.2990    0.0000 C   0  0  0  0  0  0  0  0  0  0  0  0
    0.7500    1.2990    0.0000 C   0  0  0  0  0  0  0  0  0  0  0  0
   -1.5000    2.5981    0.0000 C   0  0  0  0  0  0  0  0  0  0  0  0
   -1.7605    4.0753    0.0000 C   0  0  0  0  0  0  0  0  0  0  0  0
   -0.0905    3.1111    0.0000 C   0  0  0  0  0  0  0  0  0  0  0  0
   -3.0000    2.5981    0.0000 C   0  0  0  0  0  0  0  0  0  0  0  0
   -4.0037    3.7128    0.0000 N   0  0  0  0  0  0  0  0  0  0  0  0
   -5.3740    3.1027    0.0000 C   0  0  0  0  0  0  0  0  0  0  0  0
   -6.7443    3.7128    0.0000 C   0  0  0  0  0  0  0  0  0  0  0  0
   -7.9579    2.8311    0.0000 C   0  0  0  0  0  0  0  0  0  0  0  0
   -9.3282    3.4412    0.0000 C   0  0  0  0  0  0  0  0  0  0  0  0
  -10.6985    4.0513    0.0000 N   0  0  0  0  0  0  0  0  0  0  0  0
   -7.8011    1.3393    0.0000 C   0  0  0  0  0  0  0  0  0  0  0  0
   -6.4307    0.7292    0.0000 C   0  0  0  0  0  0  0  0  0  0  0  0
   -5.2172    1.6109    0.0000 C   0  0  0  0  0  0  0  0  0  0  0  0
   -3.7500    1.2990    0.0000 C   0  0  0  0  0  0  0  0  0  0  0  0
   -3.0000    0.0000    0.0000 C   0  0  0  0  0  0  0  0  0  0  0  0
   -3.7500   -1.2990    0.0000 O   0  0  0  0  0  0  0  0  0  0  0  0
  1  2  2  0
  2  3  1  0
  3  4  2  0
  4  5  1  0
  5  6  2  0
  6  7  1  0
  7  8  2  0
  7  9  1  0
  9 10  1  0
  9 11  1  0
  9 12  1  0
 12 13  1  0
 13 14  1  0
 14 15  2  0
 15 16  1  0
 16 17  1  0
 17 18  3  0
 16 19  2  0
 19 20  1  0
 20 21  2  0
 21 22  1  0
 22 23  1  0
 23 24  2  0
  8  3  1  0
 22 12  2  0
 23  6  1  0
 21 14  1  0
M  END
>  <Compound_ID>  (185) 
CHEMBL3977388

>  <Molecule Name>  (185) 
nan

>  <Molecular Weight>  (185) 
312.37

>  <AlogP>  (185) 
4.55

>  <Smiles>  (185) 
C=Cc1ccc2c(c1)C(C)(C)c1[nH]c3cc(C#N)ccc3c1C2=O

>  <Standard Type>  (185) 
IC50

>  <Standard Relation>  (185) 
'='

>  <Standard Units>  (185) 
nM

>  <Standard Value>  (185) 
14.84

>  <Assay ChEMBL ID>  (185) 
CHEMBL3887074

>  <Assay Description>  (185) 
Inhibition Assay: ALK-inhibiting activity was measured by following an activity of inhibiting phosphorylation by biotinylated peptide (EGPWLEEEEEAYGWMDF). For the detection of phosphorylation of the biotinylated peptide, time-resolved fluorescence measurement was performed using an anti-phosphorylated tyrosine antibody labeled with europium cryptate and streptavidin conjugated to XL665, i.e., an allophycocyanin derivative.

>  <BAO Format ID>  (185) 
BAO_0000357

>  <BAO Label>  (185) 
single protein format

>  <Assay Organism>  (185) 
Homo sapiens

>  <Target ChEMBL ID>  (185) 
CHEMBL4247

>  <Target Name>  (185) 
ALK tyrosine kinase receptor

>  <Target Organism>  (185) 
Homo sapiens

>  <Target Type>  (185) 
SINGLE PROTEIN

>  <Document ChEMBL ID>  (185) 
CHEMBL3886150

>  <Source Description>  (185) 
BindingDB Database

>  <Document Journal>  (185) 
nan

>  <Document Year>  (185) 
2015.0

>  <Active>  (185) 
1.0

>  <bits>  (185) 
<rdkit.DataStructs.cDataStructs.ExplicitBitVect object at 0x000002422C1BADC0>

>  <Group>  (185) 
G2

$$$$

     RDKit          2D

 25 28  0  0  0  0  0  0  0  0999 V2000
    2.6491   -3.5623    0.0000 C   0  0  0  0  0  0  0  0  0  0  0  0
    1.5000   -2.5981    0.0000 C   0  0  0  0  0  0  0  0  0  0  0  0
    2.6491   -1.6339    0.0000 C   0  0  0  0  0  0  0  0  0  0  0  0
    0.7500   -1.2990    0.0000 C   0  0  0  0  0  0  0  0  0  0  0  0
    1.5000    0.0000    0.0000 C   0  0  0  0  0  0  0  0  0  0  0  0
    0.7500    1.2990    0.0000 C   0  0  0  0  0  0  0  0  0  0  0  0
    1.5000    2.5981    0.0000 C   0  0  0  0  0  0  0  0  0  0  0  0
    0.7500    3.8971    0.0000 O   0  0  0  0  0  0  0  0  0  0  0  0
    3.0000    2.5981    0.0000 O   0  0  0  0  0  0  0  0  0  0  0  0
   -0.7500    1.2990    0.0000 C   0  0  0  0  0  0  0  0  0  0  0  0
   -1.5000    0.0000    0.0000 C   0  0  0  0  0  0  0  0  0  0  0  0
   -0.7500   -1.2990    0.0000 C   0  0  0  0  0  0  0  0  0  0  0  0
   -1.5000   -2.5981    0.0000 C   0  0  0  0  0  0  0  0  0  0  0  0
   -3.0000   -2.5981    0.0000 O   0  0  0  0  0  0  0  0  0  0  0  0
   -0.7500   -3.8971    0.0000 C   0  0  0  0  0  0  0  0  0  0  0  0
    0.7500   -3.8971    0.0000 C   0  0  0  0  0  0  0  0  0  0  0  0
    1.2135   -5.3237    0.0000 N   0  0  0  0  0  0  0  0  0  0  0  0
    0.0000   -6.2054    0.0000 C   0  0  0  0  0  0  0  0  0  0  0  0
   -0.1568   -7.6972    0.0000 C   0  0  0  0  0  0  0  0  0  0  0  0
   -1.5271   -8.3073    0.0000 C   0  0  0  0  0  0  0  0  0  0  0  0
   -1.6839   -9.7990    0.0000 C   0  0  0  0  0  0  0  0  0  0  0  0
   -1.8407  -11.2908    0.0000 N   0  0  0  0  0  0  0  0  0  0  0  0
   -2.7406   -7.4256    0.0000 C   0  0  0  0  0  0  0  0  0  0  0  0
   -2.5838   -5.9338    0.0000 C   0  0  0  0  0  0  0  0  0  0  0  0
   -1.2135   -5.3237    0.0000 C   0  0  0  0  0  0  0  0  0  0  0  0
  1  2  1  0
  2  3  1  0
  2  4  1  0
  4  5  2  0
  5  6  1  0
  6  7  1  0
  7  8  2  0
  7  9  1  0
  6 10  2  0
 10 11  1  0
 11 12  2  0
 12 13  1  0
 13 14  2  0
 13 15  1  0
 15 16  2  0
 16 17  1  0
 17 18  1  0
 18 19  2  0
 19 20  1  0
 20 21  1  0
 21 22  3  0
 20 23  2  0
 23 24  1  0
 24 25  2  0
 16  2  1  0
 25 18  1  0
 12  4  1  0
 25 15  1  0
M  END
>  <Compound_ID>  (186) 
CHEMBL3930379

>  <Molecule Name>  (186) 
nan

>  <Molecular Weight>  (186) 
330.34

>  <AlogP>  (186) 
3.61

>  <Smiles>  (186) 
CC1(C)c2cc(C(=O)O)ccc2C(=O)c2c1[nH]c1cc(C#N)ccc21

>  <Standard Type>  (186) 
IC50

>  <Standard Relation>  (186) 
'='

>  <Standard Units>  (186) 
nM

>  <Standard Value>  (186) 
59.63

>  <Assay ChEMBL ID>  (186) 
CHEMBL3887074

>  <Assay Description>  (186) 
Inhibition Assay: ALK-inhibiting activity was measured by following an activity of inhibiting phosphorylation by biotinylated peptide (EGPWLEEEEEAYGWMDF). For the detection of phosphorylation of the biotinylated peptide, time-resolved fluorescence measurement was performed using an anti-phosphorylated tyrosine antibody labeled with europium cryptate and streptavidin conjugated to XL665, i.e., an allophycocyanin derivative.

>  <BAO Format ID>  (186) 
BAO_0000357

>  <BAO Label>  (186) 
single protein format

>  <Assay Organism>  (186) 
Homo sapiens

>  <Target ChEMBL ID>  (186) 
CHEMBL4247

>  <Target Name>  (186) 
ALK tyrosine kinase receptor

>  <Target Organism>  (186) 
Homo sapiens

>  <Target Type>  (186) 
SINGLE PROTEIN

>  <Document ChEMBL ID>  (186) 
CHEMBL3886150

>  <Source Description>  (186) 
BindingDB Database

>  <Document Journal>  (186) 
nan

>  <Document Year>  (186) 
2015.0

>  <Active>  (186) 
1.0

>  <bits>  (186) 
<rdkit.DataStructs.cDataStructs.ExplicitBitVect object at 0x000002422C1BB290>

>  <Group>  (186) 
G2

$$$$

     RDKit          2D

 43 47  0  0  0  0  0  0  0  0999 V2000
    3.7500   -1.2990    0.0000 C   0  0  0  0  0  0  0  0  0  0  0  0
    3.0000    0.0000    0.0000 O   0  0  0  0  0  0  0  0  0  0  0  0
    1.5000    0.0000    0.0000 C   0  0  0  0  0  0  0  0  0  0  0  0
    0.7500   -1.2990    0.0000 C   0  0  0  0  0  0  0  0  0  0  0  0
   -0.7500   -1.2990    0.0000 C   0  0  0  0  0  0  0  0  0  0  0  0
   -1.5000    0.0000    0.0000 C   0  0  0  0  0  0  0  0  0  0  0  0
   -0.7500    1.2990    0.0000 C   0  0  0  0  0  0  0  0  0  0  0  0
    0.7500    1.2990    0.0000 C   0  0  0  0  0  0  0  0  0  0  0  0
    1.5000    2.5981    0.0000 N   0  0  0  0  0  0  0  0  0  0  0  0
    3.0000    2.5981    0.0000 C   0  0  0  0  0  0  0  0  0  0  0  0
    3.7500    1.2990    0.0000 N   0  0  0  0  0  0  0  0  0  0  0  0
    5.2500    1.2990    0.0000 C   0  0  0  0  0  0  0  0  0  0  0  0
    6.0000    2.5981    0.0000 C   0  0  0  0  0  0  0  0  0  0  0  0
    7.5000    2.5981    0.0000 Cl  0  0  0  0  0  0  0  0  0  0  0  0
    5.2500    3.8971    0.0000 C   0  0  0  0  0  0  0  0  0  0  0  0
    6.0000    5.1962    0.0000 N   0  0  0  0  0  0  0  0  0  0  0  0
    5.2500    6.4952    0.0000 C   0  0  0  0  0  0  0  0  0  0  0  0
    3.7500    6.4952    0.0000 C   0  0  0  0  0  0  0  0  0  0  0  0
    3.0000    7.7942    0.0000 C   0  0  0  0  0  0  0  0  0  0  0  0
    3.7500    9.0933    0.0000 C   0  0  0  0  0  0  0  0  0  0  0  0
    5.2500    9.0933    0.0000 C   0  0  0  0  0  0  0  0  0  0  0  0
    6.0000    7.7942    0.0000 C   0  0  0  0  0  0  0  0  0  0  0  0
    7.5000    7.7942    0.0000 S   0  0  0  0  0  0  0  0  0  0  0  0
    7.5000    6.2942    0.0000 O   0  0  0  0  0  0  0  0  0  0  0  0
    7.5000    9.2942    0.0000 O   0  0  0  0  0  0  0  0  0  0  0  0
    9.0000    7.7942    0.0000 C   0  0  0  0  0  0  0  0  0  0  0  0
    9.7500    9.0933    0.0000 C   0  0  0  0  0  0  0  0  0  0  0  0
    9.7500    6.4952    0.0000 C   0  0  0  0  0  0  0  0  0  0  0  0
    3.7500    3.8971    0.0000 N   0  0  0  0  0  0  0  0  0  0  0  0
   -3.0000    0.0000    0.0000 C   0  0  0  0  0  0  0  0  0  0  0  0
   -3.7500   -1.2990    0.0000 C   0  0  0  0  0  0  0  0  0  0  0  0
   -3.0000   -2.5981    0.0000 C   0  0  0  0  0  0  0  0  0  0  0  0
   -3.7500   -3.8971    0.0000 N   0  0  0  0  0  0  0  0  0  0  0  0
   -5.2500   -3.8971    0.0000 N   0  0  0  0  0  0  0  0  0  0  0  0
   -6.0000   -2.5981    0.0000 C   0  0  0  0  0  0  0  0  0  0  0  0
   -7.5000   -2.5981    0.0000 C   0  0  0  0  0  0  0  0  0  0  0  0
   -8.2500   -3.8971    0.0000 N   0  0  0  0  0  0  0  0  0  0  0  0
   -9.7500   -3.8971    0.0000 C   0  0  0  0  0  0  0  0  0  0  0  0
   -7.5000   -5.1962    0.0000 C   0  0  0  0  0  0  0  0  0  0  0  0
   -6.0000   -5.1962    0.0000 C   0  0  0  0  0  0  0  0  0  0  0  0
   -1.5000   -2.5981    0.0000 C   0  0  0  0  0  0  0  0  0  0  0  0
   -0.0905   -3.1111    0.0000 C   0  0  0  0  0  0  0  0  0  0  0  0
   -1.7605   -4.0753    0.0000 C   0  0  0  0  0  0  0  0  0  0  0  0
  1  2  1  0
  2  3  1  0
  3  4  2  0
  4  5  1  0
  5  6  2  0
  6  7  1  0
  7  8  2  0
  8  9  1  0
  9 10  1  0
 10 11  2  0
 11 12  1  0
 12 13  2  0
 13 14  1  0
 13 15  1  0
 15 16  1  0
 16 17  1  0
 17 18  2  0
 18 19  1  0
 19 20  2  0
 20 21  1  0
 21 22  2  0
 22 23  1  0
 23 24  2  0
 23 25  2  0
 23 26  1  0
 26 27  1  0
 26 28  1  0
 15 29  2  0
  6 30  1  0
 30 31  1  0
 31 32  1  0
 32 33  2  0
 33 34  1  0
 34 35  1  0
 35 36  1  0
 36 37  1  0
 37 38  1  0
 37 39  1  0
 39 40  1  0
 32 41  1  0
 41 42  1  0
 41 43  1  0
  8  3  1  0
 29 10  1  0
 40 34  1  0
 41  5  1  0
 22 17  1  0
M  END
>  <Compound_ID>  (187) 
CHEMBL3785774

>  <Molecule Name>  (187) 
nan

>  <Molecular Weight>  (187) 
626.23

>  <AlogP>  (187) 
5.64

>  <Smiles>  (187) 
COc1cc2c(cc1Nc1ncc(Cl)c(Nc3ccccc3S(=O)(=O)C(C)C)n1)CC/C(=N\N1CCN(C)CC1)C2(C)C

>  <Standard Type>  (187) 
IC50

>  <Standard Relation>  (187) 
'='

>  <Standard Units>  (187) 
nM

>  <Standard Value>  (187) 
8.4

>  <Assay ChEMBL ID>  (187) 
CHEMBL3791604

>  <Assay Description>  (187) 
Inhibition of ALK L1196M mutant (unknown origin) after 30 mins by HTRF assay

>  <BAO Format ID>  (187) 
BAO_0000357

>  <BAO Label>  (187) 
single protein format

>  <Assay Organism>  (187) 
Homo sapiens

>  <Target ChEMBL ID>  (187) 
CHEMBL4247

>  <Target Name>  (187) 
ALK tyrosine kinase receptor

>  <Target Organism>  (187) 
Homo sapiens

>  <Target Type>  (187) 
SINGLE PROTEIN

>  <Document ChEMBL ID>  (187) 
CHEMBL3784918

>  <Source Description>  (187) 
Scientific Literature

>  <Document Journal>  (187) 
Bioorg Med Chem Lett

>  <Document Year>  (187) 
2016.0

>  <Active>  (187) 
1.0

>  <bits>  (187) 
<rdkit.DataStructs.cDataStructs.ExplicitBitVect object at 0x000002422C1BB450>

>  <Group>  (187) 
G2

$$$$

     RDKit          2D

 31 34  0  0  0  0  0  0  0  0999 V2000
    8.2500   -3.8971    0.0000 C   0  0  0  0  0  0  0  0  0  0  0  0
    7.5000   -2.5981    0.0000 C   0  0  0  0  0  0  0  0  0  0  0  0
    6.0000   -2.5981    0.0000 N   0  0  0  0  0  0  0  0  0  0  0  0
    5.2500   -3.8971    0.0000 C   0  0  0  0  0  0  0  0  0  0  0  0
    6.0000   -5.1962    0.0000 C   0  0  0  0  0  0  0  0  0  0  0  0
    5.2500   -1.2990    0.0000 C   0  0  0  0  0  0  0  0  0  0  0  0
    3.7500   -1.2990    0.0000 C   0  0  0  0  0  0  0  0  0  0  0  0
    3.0000    0.0000    0.0000 O   0  0  0  0  0  0  0  0  0  0  0  0
    1.5000    0.0000    0.0000 C   0  0  0  0  0  0  0  0  0  0  0  0
    0.7500   -1.2990    0.0000 C   0  0  0  0  0  0  0  0  0  0  0  0
   -0.7500   -1.2990    0.0000 C   0  0  0  0  0  0  0  0  0  0  0  0
   -1.5000    0.0000    0.0000 C   0  0  0  0  0  0  0  0  0  0  0  0
   -0.7500    1.2990    0.0000 C   0  0  0  0  0  0  0  0  0  0  0  0
    0.7500    1.2990    0.0000 C   0  0  0  0  0  0  0  0  0  0  0  0
   -1.5000    2.5981    0.0000 C   0  0  0  0  0  0  0  0  0  0  0  0
   -1.7605    4.0753    0.0000 C   0  0  0  0  0  0  0  0  0  0  0  0
   -0.0905    3.1111    0.0000 C   0  0  0  0  0  0  0  0  0  0  0  0
   -3.0000    2.5981    0.0000 C   0  0  0  0  0  0  0  0  0  0  0  0
   -4.0037    3.7128    0.0000 N   0  0  0  0  0  0  0  0  0  0  0  0
   -5.3740    3.1027    0.0000 C   0  0  0  0  0  0  0  0  0  0  0  0
   -6.7443    3.7128    0.0000 C   0  0  0  0  0  0  0  0  0  0  0  0
   -7.9579    2.8311    0.0000 C   0  0  0  0  0  0  0  0  0  0  0  0
   -9.3282    3.4412    0.0000 N   0  0  0  0  0  4  0  0  0  0  0  0
  -10.5417    2.5595    0.0000 O   0  0  0  0  0  0  0  0  0  0  0  0
   -9.4850    4.9330    0.0000 O   0  0  0  0  0  1  0  0  0  0  0  0
   -7.8011    1.3393    0.0000 C   0  0  0  0  0  0  0  0  0  0  0  0
   -6.4307    0.7292    0.0000 C   0  0  0  0  0  0  0  0  0  0  0  0
   -5.2172    1.6109    0.0000 C   0  0  0  0  0  0  0  0  0  0  0  0
   -3.7500    1.2990    0.0000 C   0  0  0  0  0  0  0  0  0  0  0  0
   -3.0000    0.0000    0.0000 C   0  0  0  0  0  0  0  0  0  0  0  0
   -3.7500   -1.2990    0.0000 O   0  0  0  0  0  0  0  0  0  0  0  0
  1  2  1  0
  2  3  1  0
  3  4  1  0
  4  5  1  0
  3  6  1  0
  6  7  1  0
  7  8  1  0
  8  9  1  0
  9 10  2  0
 10 11  1  0
 11 12  2  0
 12 13  1  0
 13 14  2  0
 13 15  1  0
 15 16  1  0
 15 17  1  0
 15 18  1  0
 18 19  1  0
 19 20  1  0
 20 21  2  0
 21 22  1  0
 22 23  1  0
 23 24  2  0
 23 25  1  0
 22 26  2  0
 26 27  1  0
 27 28  2  0
 28 29  1  0
 29 30  1  0
 30 31  2  0
 14  9  1  0
 29 18  2  0
 30 12  1  0
 28 20  1  0
M  CHG  2  23   1  25  -1
M  END
>  <Compound_ID>  (188) 
CHEMBL1779190

>  <Molecule Name>  (188) 
nan

>  <Molecular Weight>  (188) 
421.5

>  <AlogP>  (188) 
4.67

>  <Smiles>  (188) 
CCN(CC)CCOc1ccc2c(c1)C(C)(C)c1[nH]c3cc([N+](=O)[O-])ccc3c1C2=O

>  <Standard Type>  (188) 
IC50

>  <Standard Relation>  (188) 
'='

>  <Standard Units>  (188) 
nM

>  <Standard Value>  (188) 
80.0

>  <Assay ChEMBL ID>  (188) 
CHEMBL1781770

>  <Assay Description>  (188) 
Inhibition of ALK assessed as biotin-EGPWLEEEEEAYGWMDF peptide phosphorylation by TR-FRET assay

>  <BAO Format ID>  (188) 
BAO_0000357

>  <BAO Label>  (188) 
single protein format

>  <Assay Organism>  (188) 
None

>  <Target ChEMBL ID>  (188) 
CHEMBL4247

>  <Target Name>  (188) 
ALK tyrosine kinase receptor

>  <Target Organism>  (188) 
Homo sapiens

>  <Target Type>  (188) 
SINGLE PROTEIN

>  <Document ChEMBL ID>  (188) 
CHEMBL1777813

>  <Source Description>  (188) 
Scientific Literature

>  <Document Journal>  (188) 
Bioorg Med Chem Lett

>  <Document Year>  (188) 
2011.0

>  <Active>  (188) 
1.0

>  <bits>  (188) 
<rdkit.DataStructs.cDataStructs.ExplicitBitVect object at 0x000002422C1BBB50>

>  <Group>  (188) 
G2

$$$$

     RDKit          2D

 36 40  0  0  0  0  0  0  0  0999 V2000
   -4.5577    0.2855    0.0000 C   0  0  0  0  0  0  0  0  0  0  0  0
   -3.4430   -0.7182    0.0000 O   0  0  0  0  0  0  0  0  0  0  0  0
   -3.7548   -2.1855    0.0000 C   0  0  0  0  0  0  0  0  0  0  0  0
   -5.1814   -2.6490    0.0000 N   0  0  0  0  0  0  0  0  0  0  0  0
   -5.4933   -4.1162    0.0000 C   0  0  0  0  0  0  0  0  0  0  0  0
   -4.3786   -5.1199    0.0000 C   0  0  0  0  0  0  0  0  0  0  0  0
   -4.6904   -6.5871    0.0000 F   0  0  0  0  0  0  0  0  0  0  0  0
   -2.9520   -4.6564    0.0000 C   0  0  0  0  0  0  0  0  0  0  0  0
   -2.6401   -3.1891    0.0000 C   0  0  0  0  0  0  0  0  0  0  0  0
   -1.2135   -2.7256    0.0000 C   0  0  0  0  0  0  0  0  0  0  0  0
   -0.0000   -3.6073    0.0000 C   0  0  0  0  0  0  0  0  0  0  0  0
    0.0000   -5.1073    0.0000 C   0  0  0  0  0  0  0  0  0  0  0  0
    1.2990   -5.8573    0.0000 N   0  0  0  0  0  0  0  0  0  0  0  0
   -1.2990   -5.8573    0.0000 O   0  0  0  0  0  0  0  0  0  0  0  0
    1.2135   -2.7256    0.0000 S   0  0  0  0  0  0  0  0  0  0  0  0
    0.7500   -1.2990    0.0000 C   0  0  0  0  0  0  0  0  0  0  0  0
    1.5000    0.0000    0.0000 C   0  0  0  0  0  0  0  0  0  0  0  0
    0.7500    1.2990    0.0000 N   0  0  0  0  0  0  0  0  0  0  0  0
   -0.7500    1.2990    0.0000 C   0  0  0  0  0  0  0  0  0  0  0  0
   -1.5000    2.5981    0.0000 N   0  0  0  0  0  0  0  0  0  0  0  0
   -0.7500    3.8971    0.0000 C   0  0  0  0  0  0  0  0  0  0  0  0
    0.7418    4.0539    0.0000 C   0  0  0  0  0  0  0  0  0  0  0  0
    1.0537    5.5211    0.0000 C   0  0  0  0  0  0  0  0  0  0  0  0
    2.4240    6.1312    0.0000 C   0  0  0  0  0  0  0  0  0  0  0  0
    2.5808    7.6230    0.0000 C   0  0  0  0  0  0  0  0  0  0  0  0
    3.9511    8.2331    0.0000 C   0  0  0  0  0  0  0  0  0  0  0  0
    5.1646    7.3514    0.0000 O   0  0  0  0  0  0  0  0  0  0  0  0
    5.0078    5.8597    0.0000 C   0  0  0  0  0  0  0  0  0  0  0  0
    3.6375    5.2496    0.0000 C   0  0  0  0  0  0  0  0  0  0  0  0
   -0.2454    6.2711    0.0000 N   0  0  0  0  0  0  0  0  0  0  0  0
   -1.3601    5.2674    0.0000 N   0  0  0  0  0  0  0  0  0  0  0  0
   -2.8273    5.5793    0.0000 C   0  0  0  0  0  0  0  0  0  0  0  0
   -3.2909    7.0059    0.0000 C   0  0  0  0  0  0  0  0  0  0  0  0
   -3.8310    4.4646    0.0000 C   0  0  0  0  0  0  0  0  0  0  0  0
   -1.5000    0.0000    0.0000 N   0  0  0  0  0  0  0  0  0  0  0  0
   -0.7500   -1.2990    0.0000 C   0  0  0  0  0  0  0  0  0  0  0  0
  1  2  1  0
  2  3  1  0
  3  4  2  0
  4  5  1  0
  5  6  2  0
  6  7  1  0
  6  8  1  0
  8  9  2  0
  9 10  1  0
 10 11  2  0
 11 12  1  0
 12 13  1  0
 12 14  2  0
 11 15  1  0
 15 16  1  0
 16 17  2  0
 17 18  1  0
 18 19  2  0
 19 20  1  0
 20 21  1  0
 21 22  2  0
 22 23  1  0
 23 24  1  0
 24 25  1  0
 25 26  1  0
 26 27  1  0
 27 28  1  0
 28 29  1  0
 23 30  2  0
 30 31  1  0
 31 32  1  0
 32 33  1  0
 32 34  1  0
 19 35  1  0
 35 36  2  0
  9  3  1  0
 36 10  1  0
 36 16  1  0
 31 21  1  0
 29 24  1  0
M  END
>  <Compound_ID>  (189) 
CHEMBL3669148

>  <Molecule Name>  (189) 
nan

>  <Molecular Weight>  (189) 
511.58

>  <AlogP>  (189) 
4.41

>  <Smiles>  (189) 
COc1ncc(F)cc1-c1c(C(N)=O)sc2cnc(Nc3cc(C4CCOCC4)nn3C(C)C)nc12

>  <Standard Type>  (189) 
IC50

>  <Standard Relation>  (189) 
'='

>  <Standard Units>  (189) 
nM

>  <Standard Value>  (189) 
13.0

>  <Assay ChEMBL ID>  (189) 
CHEMBL3887055

>  <Assay Description>  (189) 
In Vitro Inhibition Assay: The reagents used have the following composition: Enzyme buffer (EB): 50 mM HEPES (pH: 7.0) (Sigma H7523), 100 mM NaCl (Sigma S7653), NaN.sub.3 at 0.01% (Sigma S8032), BSA at 0.005% (Sigma A2153), 0.05 mM sodium orthovanadate (Calbiochem 567540). Detection buffer (DB): 50 mM HEPES (pH: 7.0), BSA at 0.1%, 0.8 M KF (Fluka 60239), 20 mM EDTA (Sigma E5134).The peptide used is the one described in Biochemistry, 2005, 44, 8533-8542; A-21-K(biotin)NH.sub.2, obtained from NeoMPS (reference SP081233). All the HTRF reagents Mab PT66-K (61T66KLB) and streptavidin-XL665 (610SAXLB), and the SEB reagent, are purchased from Cisbio.The test is carried out in a 384-well plate (Greiner 784076). The serial dilutions are carried out in pure DMSO, and then an intermediate one-in-three dilution in water is carried out, with 1 microliter of each concentration being distributed, all these operations being performed using the Zephyr apparatus (Caliper Life Sciences).

>  <BAO Format ID>  (189) 
BAO_0000357

>  <BAO Label>  (189) 
single protein format

>  <Assay Organism>  (189) 
None

>  <Target ChEMBL ID>  (189) 
CHEMBL4247

>  <Target Name>  (189) 
ALK tyrosine kinase receptor

>  <Target Organism>  (189) 
Homo sapiens

>  <Target Type>  (189) 
SINGLE PROTEIN

>  <Document ChEMBL ID>  (189) 
CHEMBL3639289

>  <Source Description>  (189) 
BindingDB Database

>  <Document Journal>  (189) 
nan

>  <Document Year>  (189) 
2015.0

>  <Active>  (189) 
1.0

>  <bits>  (189) 
<rdkit.DataStructs.cDataStructs.ExplicitBitVect object at 0x000002422C1BA0A0>

>  <Group>  (189) 
G2

$$$$

     RDKit          2D

 38 42  0  0  0  0  0  0  0  0999 V2000
   -2.1491   -7.1273    0.0000 C   0  0  0  0  0  0  0  0  0  0  0  0
   -1.8373   -5.6601    0.0000 O   0  0  0  0  0  0  0  0  0  0  0  0
   -2.9520   -4.6564    0.0000 C   0  0  0  0  0  0  0  0  0  0  0  0
   -4.3786   -5.1199    0.0000 C   0  0  0  0  0  0  0  0  0  0  0  0
   -5.4933   -4.1162    0.0000 C   0  0  0  0  0  0  0  0  0  0  0  0
   -5.1814   -2.6490    0.0000 C   0  0  0  0  0  0  0  0  0  0  0  0
   -6.2961   -1.6453    0.0000 F   0  0  0  0  0  0  0  0  0  0  0  0
   -3.7548   -2.1855    0.0000 C   0  0  0  0  0  0  0  0  0  0  0  0
   -2.6401   -3.1891    0.0000 C   0  0  0  0  0  0  0  0  0  0  0  0
   -1.2135   -2.7256    0.0000 C   0  0  0  0  0  0  0  0  0  0  0  0
   -0.0000   -3.6073    0.0000 C   0  0  0  0  0  0  0  0  0  0  0  0
    0.0000   -5.1073    0.0000 C   0  0  0  0  0  0  0  0  0  0  0  0
    1.2990   -5.8573    0.0000 O   0  0  0  0  0  0  0  0  0  0  0  0
    1.2135   -2.7256    0.0000 S   0  0  0  0  0  0  0  0  0  0  0  0
    0.7500   -1.2990    0.0000 C   0  0  0  0  0  0  0  0  0  0  0  0
    1.5000    0.0000    0.0000 C   0  0  0  0  0  0  0  0  0  0  0  0
    0.7500    1.2990    0.0000 N   0  0  0  0  0  0  0  0  0  0  0  0
   -0.7500    1.2990    0.0000 C   0  0  0  0  0  0  0  0  0  0  0  0
   -1.5000    2.5981    0.0000 N   0  0  0  0  0  0  0  0  0  0  0  0
   -0.7500    3.8971    0.0000 C   0  0  0  0  0  0  0  0  0  0  0  0
    0.7500    3.8971    0.0000 C   0  0  0  0  0  0  0  0  0  0  0  0
    1.5000    5.1962    0.0000 C   0  0  0  0  0  0  0  0  0  0  0  0
    0.7500    6.4952    0.0000 C   0  0  0  0  0  0  0  0  0  0  0  0
    1.5000    7.7942    0.0000 N   0  0  0  0  0  0  0  0  0  0  0  0
    3.0000    7.7942    0.0000 C   0  0  0  0  0  0  0  0  0  0  0  0
    3.7500    9.0933    0.0000 C   0  0  0  0  0  0  0  0  0  0  0  0
    3.0000   10.3923    0.0000 N   0  0  0  0  0  0  0  0  0  0  0  0
    3.7500   11.6913    0.0000 C   0  0  0  0  0  0  0  0  0  0  0  0
    1.5000   10.3923    0.0000 C   0  0  0  0  0  0  0  0  0  0  0  0
    0.7500    9.0933    0.0000 C   0  0  0  0  0  0  0  0  0  0  0  0
   -0.7500    6.4952    0.0000 C   0  0  0  0  0  0  0  0  0  0  0  0
   -1.5000    5.1962    0.0000 C   0  0  0  0  0  0  0  0  0  0  0  0
   -3.0000    5.1962    0.0000 O   0  0  0  0  0  0  0  0  0  0  0  0
   -3.7500    6.4952    0.0000 C   0  0  0  0  0  0  0  0  0  0  0  0
   -5.2500    6.4952    0.0000 C   0  0  0  0  0  0  0  0  0  0  0  0
   -3.0000    7.7942    0.0000 C   0  0  0  0  0  0  0  0  0  0  0  0
   -1.5000    0.0000    0.0000 N   0  0  0  0  0  0  0  0  0  0  0  0
   -0.7500   -1.2990    0.0000 C   0  0  0  0  0  0  0  0  0  0  0  0
  1  2  1  0
  2  3  1  0
  3  4  2  0
  4  5  1  0
  5  6  2  0
  6  7  1  0
  6  8  1  0
  8  9  2  0
  9 10  1  0
 10 11  2  0
 11 12  1  0
 12 13  1  0
 11 14  1  0
 14 15  1  0
 15 16  2  0
 16 17  1  0
 17 18  2  0
 18 19  1  0
 19 20  1  0
 20 21  2  0
 21 22  1  0
 22 23  2  0
 23 24  1  0
 24 25  1  0
 25 26  1  0
 26 27  1  0
 27 28  1  0
 27 29  1  0
 29 30  1  0
 23 31  1  0
 31 32  2  0
 32 33  1  0
 33 34  1  0
 34 35  1  0
 34 36  1  0
 18 37  1  0
 37 38  2  0
  9  3  1  0
 38 10  1  0
 38 15  1  0
 32 20  1  0
 30 24  1  0
M  END
>  <Compound_ID>  (190) 
CHEMBL3669151

>  <Molecule Name>  (190) 
nan

>  <Molecular Weight>  (190) 
537.66

>  <AlogP>  (190) 
5.28

>  <Smiles>  (190) 
COc1ccc(F)cc1-c1c(CO)sc2cnc(Nc3ccc(N4CCN(C)CC4)cc3OC(C)C)nc12

>  <Standard Type>  (190) 
IC50

>  <Standard Relation>  (190) 
'='

>  <Standard Units>  (190) 
nM

>  <Standard Value>  (190) 
29.0

>  <Assay ChEMBL ID>  (190) 
CHEMBL3887055

>  <Assay Description>  (190) 
In Vitro Inhibition Assay: The reagents used have the following composition: Enzyme buffer (EB): 50 mM HEPES (pH: 7.0) (Sigma H7523), 100 mM NaCl (Sigma S7653), NaN.sub.3 at 0.01% (Sigma S8032), BSA at 0.005% (Sigma A2153), 0.05 mM sodium orthovanadate (Calbiochem 567540). Detection buffer (DB): 50 mM HEPES (pH: 7.0), BSA at 0.1%, 0.8 M KF (Fluka 60239), 20 mM EDTA (Sigma E5134).The peptide used is the one described in Biochemistry, 2005, 44, 8533-8542; A-21-K(biotin)NH.sub.2, obtained from NeoMPS (reference SP081233). All the HTRF reagents Mab PT66-K (61T66KLB) and streptavidin-XL665 (610SAXLB), and the SEB reagent, are purchased from Cisbio.The test is carried out in a 384-well plate (Greiner 784076). The serial dilutions are carried out in pure DMSO, and then an intermediate one-in-three dilution in water is carried out, with 1 microliter of each concentration being distributed, all these operations being performed using the Zephyr apparatus (Caliper Life Sciences).

>  <BAO Format ID>  (190) 
BAO_0000357

>  <BAO Label>  (190) 
single protein format

>  <Assay Organism>  (190) 
None

>  <Target ChEMBL ID>  (190) 
CHEMBL4247

>  <Target Name>  (190) 
ALK tyrosine kinase receptor

>  <Target Organism>  (190) 
Homo sapiens

>  <Target Type>  (190) 
SINGLE PROTEIN

>  <Document ChEMBL ID>  (190) 
CHEMBL3639289

>  <Source Description>  (190) 
BindingDB Database

>  <Document Journal>  (190) 
nan

>  <Document Year>  (190) 
2015.0

>  <Active>  (190) 
1.0

>  <bits>  (190) 
<rdkit.DataStructs.cDataStructs.ExplicitBitVect object at 0x000002422C1BB920>

>  <Group>  (190) 
G2

$$$$

     RDKit          2D

 43 47  0  0  0  0  0  0  0  0999 V2000
    3.7500   -1.2990    0.0000 C   0  0  0  0  0  0  0  0  0  0  0  0
    3.0000    0.0000    0.0000 O   0  0  0  0  0  0  0  0  0  0  0  0
    1.5000    0.0000    0.0000 C   0  0  0  0  0  0  0  0  0  0  0  0
    0.7500   -1.2990    0.0000 C   0  0  0  0  0  0  0  0  0  0  0  0
   -0.7500   -1.2990    0.0000 C   0  0  0  0  0  0  0  0  0  0  0  0
   -1.5000   -2.5981    0.0000 N   0  0  0  0  0  0  0  0  0  0  0  0
   -3.0000   -2.5981    0.0000 C   0  0  0  0  0  0  0  0  0  0  0  0
   -3.7500   -3.8971    0.0000 C   0  0  0  0  0  0  0  0  0  0  0  0
   -3.0000   -5.1962    0.0000 N   0  0  0  0  0  0  0  0  0  0  0  0
   -3.7500   -6.4952    0.0000 C   0  0  0  0  0  0  0  0  0  0  0  0
   -5.2500   -6.4952    0.0000 C   0  0  0  0  0  0  0  0  0  0  0  0
   -3.0000   -7.7942    0.0000 O   0  0  0  0  0  0  0  0  0  0  0  0
   -1.5000   -5.1962    0.0000 C   0  0  0  0  0  0  0  0  0  0  0  0
   -0.7500   -3.8971    0.0000 C   0  0  0  0  0  0  0  0  0  0  0  0
   -1.5000    0.0000    0.0000 C   0  0  0  0  0  0  0  0  0  0  0  0
   -0.7500    1.2990    0.0000 C   0  0  0  0  0  0  0  0  0  0  0  0
    0.7500    1.2990    0.0000 C   0  0  0  0  0  0  0  0  0  0  0  0
    1.5000    2.5981    0.0000 N   0  0  0  0  0  0  0  0  0  0  0  0
    3.0000    2.5981    0.0000 C   0  0  0  0  0  0  0  0  0  0  0  0
    3.7500    1.2990    0.0000 N   0  0  0  0  0  0  0  0  0  0  0  0
    5.2500    1.2990    0.0000 C   0  0  0  0  0  0  0  0  0  0  0  0
    6.0000    2.5981    0.0000 C   0  0  0  0  0  0  0  0  0  0  0  0
    7.5000    2.5981    0.0000 Cl  0  0  0  0  0  0  0  0  0  0  0  0
    5.2500    3.8971    0.0000 C   0  0  0  0  0  0  0  0  0  0  0  0
    6.0000    5.1962    0.0000 N   0  0  0  0  0  0  0  0  0  0  0  0
    5.2500    6.4952    0.0000 C   0  0  0  0  0  0  0  0  0  0  0  0
    6.0000    7.7942    0.0000 C   0  0  0  0  0  0  0  0  0  0  0  0
    5.2500    9.0933    0.0000 C   0  0  0  0  0  0  0  0  0  0  0  0
    3.7500    9.0933    0.0000 C   0  0  0  0  0  0  0  0  0  0  0  0
    3.0000   10.3923    0.0000 N   0  0  0  0  0  0  0  0  0  0  0  0
    3.7500   11.6913    0.0000 C   0  0  0  0  0  0  0  0  0  0  0  0
    3.0000   12.9904    0.0000 C   0  0  0  0  0  0  0  0  0  0  0  0
    1.5000   12.9904    0.0000 N   0  0  0  0  0  0  0  0  0  0  0  0
    0.7500   14.2894    0.0000 C   0  0  0  0  0  0  0  0  0  0  0  0
    1.5000   15.5885    0.0000 C   0  0  0  0  0  0  0  0  0  0  0  0
   -0.7500   14.2894    0.0000 O   0  0  0  0  0  0  0  0  0  0  0  0
    0.7500   11.6913    0.0000 C   0  0  0  0  0  0  0  0  0  0  0  0
    1.5000   10.3923    0.0000 C   0  0  0  0  0  0  0  0  0  0  0  0
    3.0000    7.7942    0.0000 C   0  0  0  0  0  0  0  0  0  0  0  0
    3.7500    6.4952    0.0000 C   0  0  0  0  0  0  0  0  0  0  0  0
    3.0000    5.1962    0.0000 O   0  0  0  0  0  0  0  0  0  0  0  0
    1.5000    5.1962    0.0000 C   0  0  0  0  0  0  0  0  0  0  0  0
    3.7500    3.8971    0.0000 N   0  0  0  0  0  0  0  0  0  0  0  0
  1  2  1  0
  2  3  1  0
  3  4  2  0
  4  5  1  0
  5  6  1  0
  6  7  1  0
  7  8  1  0
  8  9  1  0
  9 10  1  0
 10 11  1  0
 10 12  2  0
  9 13  1  0
 13 14  1  0
  5 15  2  0
 15 16  1  0
 16 17  2  0
 17 18  1  0
 18 19  1  0
 19 20  2  0
 20 21  1  0
 21 22  2  0
 22 23  1  0
 22 24  1  0
 24 25  1  0
 25 26  1  0
 26 27  2  0
 27 28  1  0
 28 29  2  0
 29 30  1  0
 30 31  1  0
 31 32  1  0
 32 33  1  0
 33 34  1  0
 34 35  1  0
 34 36  2  0
 33 37  1  0
 37 38  1  0
 29 39  1  0
 39 40  2  0
 40 41  1  0
 41 42  1  0
 24 43  2  0
 17  3  1  0
 43 19  1  0
 14  6  1  0
 40 26  1  0
 38 30  1  0
M  END
>  <Compound_ID>  (191) 
CHEMBL3941724

>  <Molecule Name>  (191) 
nan

>  <Molecular Weight>  (191) 
609.13

>  <AlogP>  (191) 
3.97

>  <Smiles>  (191) 
COc1cc(N2CCN(C(C)=O)CC2)ccc1Nc1ncc(Cl)c(Nc2ccc(N3CCN(C(C)=O)CC3)cc2OC)n1

>  <Standard Type>  (191) 
IC50

>  <Standard Relation>  (191) 
'='

>  <Standard Units>  (191) 
nM

>  <Standard Value>  (191) 
75.0

>  <Assay ChEMBL ID>  (191) 
CHEMBL3887133

>  <Assay Description>  (191) 
Homogeneous Time-resolved fluorescence (HTRF) Assay: In order to measure the inhibitory activity against ALK, a Grainer 96-well round type bottom plate was added with the compounds (2 μl) prepared in Examples 1 to 89, and mixed with ALK enzyme (1 ul) and a peptide substrate (2 μl) with biotin attached thereto for 15 minutes and cultured thereafter. Here, ATP solution (5 μl) was added thereto and kinase reaction was performed at room temperature for 30 minutes. XL 665 (5 μl), to which Streptavidin dissolved in ethylenediaminetetraacetic acid solution was attached, anti-phosphotyrosine antibody (5 μl), to which europium (Eu3+) was attached, were added to a reaction solution to stop the reaction, cultured for 1 hour, and analyzed using Homogeneous Time-resolved fluorescence (HTRF, Cisbio). The result was read by a Wallac Envision 2103 device at the wavelength range of 615/665 nm.

>  <BAO Format ID>  (191) 
BAO_0000357

>  <BAO Label>  (191) 
single protein format

>  <Assay Organism>  (191) 
None

>  <Target ChEMBL ID>  (191) 
CHEMBL4247

>  <Target Name>  (191) 
ALK tyrosine kinase receptor

>  <Target Organism>  (191) 
Homo sapiens

>  <Target Type>  (191) 
SINGLE PROTEIN

>  <Document ChEMBL ID>  (191) 
CHEMBL3886178

>  <Source Description>  (191) 
BindingDB Database

>  <Document Journal>  (191) 
nan

>  <Document Year>  (191) 
2015.0

>  <Active>  (191) 
1.0

>  <bits>  (191) 
<rdkit.DataStructs.cDataStructs.ExplicitBitVect object at 0x000002422C1BBA00>

>  <Group>  (191) 
G2

$$$$

     RDKit          2D

 35 39  0  0  0  0  0  0  0  0999 V2000
  -12.9381   -7.9010    0.0000 C   0  0  0  0  0  0  0  0  0  0  0  0
  -11.5115   -7.4375    0.0000 N   0  0  0  0  0  0  0  0  0  0  0  0
  -11.1996   -5.9703    0.0000 C   0  0  0  0  0  0  0  0  0  0  0  0
   -9.7730   -5.5068    0.0000 C   0  0  0  0  0  0  0  0  0  0  0  0
   -8.6583   -6.5105    0.0000 N   0  0  0  0  0  0  0  0  0  0  0  0
   -7.2317   -6.0469    0.0000 C   0  0  0  0  0  0  0  0  0  0  0  0
   -6.1170   -7.0506    0.0000 C   0  0  0  0  0  0  0  0  0  0  0  0
   -4.6904   -6.5871    0.0000 C   0  0  0  0  0  0  0  0  0  0  0  0
   -4.3786   -5.1199    0.0000 C   0  0  0  0  0  0  0  0  0  0  0  0
   -2.9520   -4.6564    0.0000 C   0  0  0  0  0  0  0  0  0  0  0  0
   -1.8373   -5.6601    0.0000 O   0  0  0  0  0  0  0  0  0  0  0  0
   -2.6401   -3.1891    0.0000 N   0  0  0  0  0  0  0  0  0  0  0  0
   -1.2135   -2.7256    0.0000 C   0  0  0  0  0  0  0  0  0  0  0  0
   -0.0000   -3.6073    0.0000 N   0  0  0  0  0  0  0  0  0  0  0  0
    1.2135   -2.7256    0.0000 N   0  0  0  0  0  0  0  0  0  0  0  0
    0.7500   -1.2990    0.0000 C   0  0  0  0  0  0  0  0  0  0  0  0
    1.5000    0.0000    0.0000 C   0  0  0  0  0  0  0  0  0  0  0  0
    0.7500    1.2990    0.0000 C   0  0  0  0  0  0  0  0  0  0  0  0
   -0.7500    1.2990    0.0000 C   0  0  0  0  0  0  0  0  0  0  0  0
   -1.5000    2.5981    0.0000 C   0  0  0  0  0  0  0  0  0  0  0  0
   -0.7500    3.8971    0.0000 C   0  0  0  0  0  0  0  0  0  0  0  0
    0.7500    3.8971    0.0000 C   0  0  0  0  0  0  0  0  0  0  0  0
    1.5000    5.1962    0.0000 C   0  0  0  0  0  0  0  0  0  0  0  0
    3.0000    5.1962    0.0000 F   0  0  0  0  0  0  0  0  0  0  0  0
    0.7500    6.4952    0.0000 C   0  0  0  0  0  0  0  0  0  0  0  0
   -0.7500    6.4952    0.0000 C   0  0  0  0  0  0  0  0  0  0  0  0
   -1.5000    7.7942    0.0000 F   0  0  0  0  0  0  0  0  0  0  0  0
   -1.5000    5.1962    0.0000 C   0  0  0  0  0  0  0  0  0  0  0  0
   -1.5000    0.0000    0.0000 C   0  0  0  0  0  0  0  0  0  0  0  0
   -0.7500   -1.2990    0.0000 C   0  0  0  0  0  0  0  0  0  0  0  0
   -5.4933   -4.1162    0.0000 C   0  0  0  0  0  0  0  0  0  0  0  0
   -5.1814   -2.6490    0.0000 N   0  0  0  0  0  0  0  0  0  0  0  0
   -6.9199   -4.5797    0.0000 C   0  0  0  0  0  0  0  0  0  0  0  0
   -8.9702   -7.9777    0.0000 C   0  0  0  0  0  0  0  0  0  0  0  0
  -10.3968   -8.4412    0.0000 C   0  0  0  0  0  0  0  0  0  0  0  0
  1  2  1  0
  2  3  1  0
  3  4  1  0
  4  5  1  0
  5  6  1  0
  6  7  2  0
  7  8  1  0
  8  9  2  0
  9 10  1  0
 10 11  2  0
 10 12  1  0
 12 13  1  0
 13 14  2  0
 14 15  1  0
 15 16  1  0
 16 17  2  0
 17 18  1  0
 18 19  2  0
 19 20  1  0
 20 21  1  0
 21 22  2  0
 22 23  1  0
 23 24  1  0
 23 25  2  0
 25 26  1  0
 26 27  1  0
 26 28  2  0
 19 29  1  0
 29 30  2  0
  9 31  1  0
 31 32  1  0
 31 33  2  0
  5 34  1  0
 34 35  1  0
 35  2  1  0
 33  6  1  0
 30 13  1  0
 30 16  1  0
 28 21  1  0
M  END
>  <Compound_ID>  (192) 
CHEMBL3805516

>  <Molecule Name>  (192) 
nan

>  <Molecular Weight>  (192) 
476.53

>  <AlogP>  (192) 
4.02

>  <Smiles>  (192) 
CN1CCN(c2ccc(C(=O)Nc3n[nH]c4ccc(Cc5cc(F)cc(F)c5)cc34)c(N)c2)CC1

>  <Standard Type>  (192) 
IC50

>  <Standard Relation>  (192) 
'='

>  <Standard Units>  (192) 
nM

>  <Standard Value>  (192) 
67.0

>  <Assay ChEMBL ID>  (192) 
CHEMBL3806916

>  <Assay Description>  (192) 
Inhibition of recombinant ALK (unknown origin) in presence of gamma33-ATP

>  <BAO Format ID>  (192) 
BAO_0000357

>  <BAO Label>  (192) 
single protein format

>  <Assay Organism>  (192) 
Homo sapiens

>  <Target ChEMBL ID>  (192) 
CHEMBL4247

>  <Target Name>  (192) 
ALK tyrosine kinase receptor

>  <Target Organism>  (192) 
Homo sapiens

>  <Target Type>  (192) 
SINGLE PROTEIN

>  <Document ChEMBL ID>  (192) 
CHEMBL3804811

>  <Source Description>  (192) 
Scientific Literature

>  <Document Journal>  (192) 
J Med Chem

>  <Document Year>  (192) 
2016.0

>  <Active>  (192) 
1.0

>  <bits>  (192) 
<rdkit.DataStructs.cDataStructs.ExplicitBitVect object at 0x000002422C1BB3E0>

>  <Group>  (192) 
G2

$$$$

     RDKit          2D

 37 41  0  0  0  0  0  0  0  0999 V2000
   -8.2219   -7.2679    0.0000 C   0  0  0  0  0  0  0  0  0  0  0  0
   -7.0084   -8.1496    0.0000 N   0  0  0  0  0  0  0  0  0  0  0  0
   -7.1652   -9.6414    0.0000 C   0  0  0  0  0  0  0  0  0  0  0  0
   -5.6381   -7.5395    0.0000 S   0  0  0  0  0  0  0  0  0  0  0  0
   -6.2482   -6.1692    0.0000 O   0  0  0  0  0  0  0  0  0  0  0  0
   -5.0280   -8.9098    0.0000 O   0  0  0  0  0  0  0  0  0  0  0  0
   -4.2677   -6.9294    0.0000 C   0  0  0  0  0  0  0  0  0  0  0  0
   -4.1110   -5.4376    0.0000 C   0  0  0  0  0  0  0  0  0  0  0  0
   -2.7406   -4.8275    0.0000 C   0  0  0  0  0  0  0  0  0  0  0  0
   -1.5271   -5.7092    0.0000 C   0  0  0  0  0  0  0  0  0  0  0  0
   -1.6839   -7.2010    0.0000 C   0  0  0  0  0  0  0  0  0  0  0  0
   -3.0542   -7.8111    0.0000 C   0  0  0  0  0  0  0  0  0  0  0  0
   -3.2110   -9.3029    0.0000 N   0  0  0  0  0  0  0  0  0  0  0  0
   -4.5813   -9.9130    0.0000 C   0  0  0  0  0  0  0  0  0  0  0  0
   -4.7381  -11.4047    0.0000 C   0  0  0  0  0  0  0  0  0  0  0  0
   -3.5246  -12.2864    0.0000 N   0  0  0  0  0  0  0  0  0  0  0  0
   -3.6814  -13.7782    0.0000 C   0  0  0  0  0  0  0  0  0  0  0  0
   -5.0517  -14.3883    0.0000 C   0  0  0  0  0  0  0  0  0  0  0  0
   -5.2085  -15.8801    0.0000 O   0  0  0  0  0  0  0  0  0  0  0  0
   -2.1543  -11.6763    0.0000 C   0  0  0  0  0  0  0  0  0  0  0  0
   -1.9975  -10.1845    0.0000 C   0  0  0  0  0  0  0  0  0  0  0  0
   -0.1568   -5.0991    0.0000 C   0  0  0  0  0  0  0  0  0  0  0  0
    1.3396   -4.9944    0.0000 C   0  0  0  0  0  0  0  0  0  0  0  0
    0.2061   -6.5545    0.0000 C   0  0  0  0  0  0  0  0  0  0  0  0
   -0.0000   -3.6073    0.0000 C   0  0  0  0  0  0  0  0  0  0  0  0
    1.2135   -2.7256    0.0000 N   0  0  0  0  0  0  0  0  0  0  0  0
    0.7500   -1.2990    0.0000 C   0  0  0  0  0  0  0  0  0  0  0  0
    1.5000    0.0000    0.0000 C   0  0  0  0  0  0  0  0  0  0  0  0
    0.7500    1.2990    0.0000 C   0  0  0  0  0  0  0  0  0  0  0  0
    1.5000    2.5981    0.0000 C   0  0  0  0  0  0  0  0  0  0  0  0
    2.2500    3.8971    0.0000 N   0  0  0  0  0  0  0  0  0  0  0  0
   -0.7500    1.2990    0.0000 C   0  0  0  0  0  0  0  0  0  0  0  0
   -1.5000    0.0000    0.0000 C   0  0  0  0  0  0  0  0  0  0  0  0
   -0.7500   -1.2990    0.0000 C   0  0  0  0  0  0  0  0  0  0  0  0
   -1.2135   -2.7256    0.0000 C   0  0  0  0  0  0  0  0  0  0  0  0
   -2.5838   -3.3357    0.0000 C   0  0  0  0  0  0  0  0  0  0  0  0
   -3.7974   -2.4540    0.0000 O   0  0  0  0  0  0  0  0  0  0  0  0
  1  2  1  0
  2  3  1  0
  2  4  1  0
  4  5  2  0
  4  6  2  0
  4  7  1  0
  7  8  2  0
  8  9  1  0
  9 10  2  0
 10 11  1  0
 11 12  2  0
 12 13  1  0
 13 14  1  0
 14 15  1  0
 15 16  1  0
 16 17  1  0
 17 18  1  0
 18 19  1  0
 16 20  1  0
 20 21  1  0
 10 22  1  0
 22 23  1  0
 22 24  1  0
 22 25  1  0
 25 26  1  0
 26 27  1  0
 27 28  2  0
 28 29  1  0
 29 30  1  0
 30 31  3  0
 29 32  2  0
 32 33  1  0
 33 34  2  0
 34 35  1  0
 35 36  1  0
 36 37  2  0
 12  7  1  0
 21 13  1  0
 35 25  2  0
 36  9  1  0
 34 27  1  0
M  END
>  <Compound_ID>  (193) 
CHEMBL3916287

>  <Molecule Name>  (193) 
nan

>  <Molecular Weight>  (193) 
521.64

>  <AlogP>  (193) 
2.27

>  <Smiles>  (193) 
CN(C)S(=O)(=O)c1cc2c(cc1N1CCN(CCO)CC1)C(C)(C)c1[nH]c3cc(C#N)ccc3c1C2=O

>  <Standard Type>  (193) 
IC50

>  <Standard Relation>  (193) 
'='

>  <Standard Units>  (193) 
nM

>  <Standard Value>  (193) 
5.101

>  <Assay ChEMBL ID>  (193) 
CHEMBL3887074

>  <Assay Description>  (193) 
Inhibition Assay: ALK-inhibiting activity was measured by following an activity of inhibiting phosphorylation by biotinylated peptide (EGPWLEEEEEAYGWMDF). For the detection of phosphorylation of the biotinylated peptide, time-resolved fluorescence measurement was performed using an anti-phosphorylated tyrosine antibody labeled with europium cryptate and streptavidin conjugated to XL665, i.e., an allophycocyanin derivative.

>  <BAO Format ID>  (193) 
BAO_0000357

>  <BAO Label>  (193) 
single protein format

>  <Assay Organism>  (193) 
Homo sapiens

>  <Target ChEMBL ID>  (193) 
CHEMBL4247

>  <Target Name>  (193) 
ALK tyrosine kinase receptor

>  <Target Organism>  (193) 
Homo sapiens

>  <Target Type>  (193) 
SINGLE PROTEIN

>  <Document ChEMBL ID>  (193) 
CHEMBL3886150

>  <Source Description>  (193) 
BindingDB Database

>  <Document Journal>  (193) 
nan

>  <Document Year>  (193) 
2015.0

>  <Active>  (193) 
1.0

>  <bits>  (193) 
<rdkit.DataStructs.cDataStructs.ExplicitBitVect object at 0x000002422C1BB5A0>

>  <Group>  (193) 
G2

$$$$

     RDKit          2D

 43 48  0  0  0  0  0  0  0  0999 V2000
   10.8058   -6.9964    0.0000 C   0  0  0  0  0  0  0  0  0  0  0  0
    9.4354   -6.3863    0.0000 O   0  0  0  0  0  0  0  0  0  0  0  0
    8.2219   -7.2679    0.0000 C   0  0  0  0  0  0  0  0  0  0  0  0
    6.8516   -6.6578    0.0000 C   0  0  0  0  0  0  0  0  0  0  0  0
    5.6381   -7.5395    0.0000 O   0  0  0  0  0  0  0  0  0  0  0  0
    4.2677   -6.9294    0.0000 C   0  0  0  0  0  0  0  0  0  0  0  0
    4.1110   -5.4376    0.0000 C   0  0  0  0  0  0  0  0  0  0  0  0
    2.7406   -4.8275    0.0000 C   0  0  0  0  0  0  0  0  0  0  0  0
    1.5271   -5.7092    0.0000 C   0  0  0  0  0  0  0  0  0  0  0  0
    1.6839   -7.2010    0.0000 C   0  0  0  0  0  0  0  0  0  0  0  0
    3.0542   -7.8111    0.0000 C   0  0  0  0  0  0  0  0  0  0  0  0
    3.2110   -9.3029    0.0000 N   0  0  0  0  0  0  0  0  0  0  0  0
    1.9975  -10.1845    0.0000 C   0  0  0  0  0  0  0  0  0  0  0  0
    2.1543  -11.6763    0.0000 C   0  0  0  0  0  0  0  0  0  0  0  0
    3.5246  -12.2864    0.0000 C   0  0  0  0  0  0  0  0  0  0  0  0
    3.6814  -13.7782    0.0000 N   0  0  0  0  0  0  0  0  0  0  0  0
    2.4679  -14.6599    0.0000 C   0  0  0  0  0  0  0  0  0  0  0  0
    2.6247  -16.1517    0.0000 C   0  0  0  0  0  0  0  0  0  0  0  0
    3.9950  -16.7618    0.0000 O   0  0  0  0  0  0  0  0  0  0  0  0
    5.2085  -15.8801    0.0000 C   0  0  0  0  0  0  0  0  0  0  0  0
    5.0517  -14.3883    0.0000 C   0  0  0  0  0  0  0  0  0  0  0  0
    4.7381  -11.4047    0.0000 C   0  0  0  0  0  0  0  0  0  0  0  0
    4.5813   -9.9130    0.0000 C   0  0  0  0  0  0  0  0  0  0  0  0
    0.1568   -5.0991    0.0000 C   0  0  0  0  0  0  0  0  0  0  0  0
   -1.3396   -4.9944    0.0000 C   0  0  0  0  0  0  0  0  0  0  0  0
   -0.2061   -6.5545    0.0000 C   0  0  0  0  0  0  0  0  0  0  0  0
    0.0000   -3.6073    0.0000 C   0  0  0  0  0  0  0  0  0  0  0  0
    1.2135   -2.7256    0.0000 C   0  0  0  0  0  0  0  0  0  0  0  0
    0.7500   -1.2990    0.0000 C   0  0  0  0  0  0  0  0  0  0  0  0
    1.5000    0.0000    0.0000 C   0  0  0  0  0  0  0  0  0  0  0  0
    0.7500    1.2990    0.0000 C   0  0  0  0  0  0  0  0  0  0  0  0
   -0.7500    1.2990    0.0000 C   0  0  0  0  0  0  0  0  0  0  0  0
   -1.5000    2.5981    0.0000 C   0  0  0  0  0  0  0  0  0  0  0  0
   -2.2500    3.8971    0.0000 N   0  0  0  0  0  0  0  0  0  0  0  0
   -1.5000    0.0000    0.0000 C   0  0  0  0  0  0  0  0  0  0  0  0
   -0.7500   -1.2990    0.0000 C   0  0  0  0  0  0  0  0  0  0  0  0
   -1.2135   -2.7256    0.0000 N   0  0  0  0  0  0  0  0  0  0  0  0
   -2.6401   -3.1891    0.0000 C   0  0  0  0  0  0  0  0  0  0  0  0
   -3.7548   -2.1855    0.0000 C   0  0  0  0  0  0  0  0  0  0  0  0
   -5.1814   -2.6490    0.0000 O   0  0  0  0  0  0  0  0  0  0  0  0
   -6.2961   -1.6453    0.0000 C   0  0  0  0  0  0  0  0  0  0  0  0
    2.5838   -3.3357    0.0000 C   0  0  0  0  0  0  0  0  0  0  0  0
    3.7974   -2.4540    0.0000 O   0  0  0  0  0  0  0  0  0  0  0  0
  1  2  1  0
  2  3  1  0
  3  4  1  0
  4  5  1  0
  5  6  1  0
  6  7  2  0
  7  8  1  0
  8  9  2  0
  9 10  1  0
 10 11  2  0
 11 12  1  0
 12 13  1  0
 13 14  1  0
 14 15  1  0
 15 16  1  0
 16 17  1  0
 17 18  1  0
 18 19  1  0
 19 20  1  0
 20 21  1  0
 15 22  1  0
 22 23  1  0
  9 24  1  0
 24 25  1  0
 24 26  1  0
 24 27  1  0
 27 28  2  0
 28 29  1  0
 29 30  2  0
 30 31  1  0
 31 32  2  0
 32 33  1  0
 33 34  3  0
 32 35  1  0
 35 36  2  0
 36 37  1  0
 37 38  1  0
 38 39  1  0
 39 40  1  0
 40 41  1  0
 28 42  1  0
 42 43  2  0
 11  6  1  0
 23 12  1  0
 37 27  1  0
 42  8  1  0
 21 16  1  0
 36 29  1  0
M  END
>  <Compound_ID>  (194) 
CHEMBL3922510

>  <Molecule Name>  (194) 
nan

>  <Molecular Weight>  (194) 
586.73

>  <AlogP>  (194) 
4.36

>  <Smiles>  (194) 
COCCOc1cc2c(cc1N1CCC(N3CCOCC3)CC1)C(C)(C)c1c(c3ccc(C#N)cc3n1CCOC)C2=O

>  <Standard Type>  (194) 
IC50

>  <Standard Relation>  (194) 
'='

>  <Standard Units>  (194) 
nM

>  <Standard Value>  (194) 
8.5

>  <Assay ChEMBL ID>  (194) 
CHEMBL3887074

>  <Assay Description>  (194) 
Inhibition Assay: ALK-inhibiting activity was measured by following an activity of inhibiting phosphorylation by biotinylated peptide (EGPWLEEEEEAYGWMDF). For the detection of phosphorylation of the biotinylated peptide, time-resolved fluorescence measurement was performed using an anti-phosphorylated tyrosine antibody labeled with europium cryptate and streptavidin conjugated to XL665, i.e., an allophycocyanin derivative.

>  <BAO Format ID>  (194) 
BAO_0000357

>  <BAO Label>  (194) 
single protein format

>  <Assay Organism>  (194) 
Homo sapiens

>  <Target ChEMBL ID>  (194) 
CHEMBL4247

>  <Target Name>  (194) 
ALK tyrosine kinase receptor

>  <Target Organism>  (194) 
Homo sapiens

>  <Target Type>  (194) 
SINGLE PROTEIN

>  <Document ChEMBL ID>  (194) 
CHEMBL3886150

>  <Source Description>  (194) 
BindingDB Database

>  <Document Journal>  (194) 
nan

>  <Document Year>  (194) 
2015.0

>  <Active>  (194) 
1.0

>  <bits>  (194) 
<rdkit.DataStructs.cDataStructs.ExplicitBitVect object at 0x000002422C1BB6F0>

>  <Group>  (194) 
G2

$$$$

     RDKit          2D

 31 35  0  0  0  0  0  0  0  0999 V2000
    1.6431  -12.8296    0.0000 C   0  0  0  0  0  0  0  0  0  0  0  0
    0.4296  -11.9479    0.0000 N   0  0  0  0  0  0  0  0  0  0  0  0
   -0.9408  -12.5580    0.0000 C   0  0  0  0  0  0  0  0  0  0  0  0
   -2.1543  -11.6763    0.0000 C   0  0  0  0  0  0  0  0  0  0  0  0
   -1.9975  -10.1845    0.0000 C   0  0  0  0  0  0  0  0  0  0  0  0
   -3.2110   -9.3029    0.0000 O   0  0  0  0  0  0  0  0  0  0  0  0
   -3.0542   -7.8111    0.0000 C   0  0  0  0  0  0  0  0  0  0  0  0
   -1.6839   -7.2010    0.0000 C   0  0  0  0  0  0  0  0  0  0  0  0
   -1.5271   -5.7092    0.0000 C   0  0  0  0  0  0  0  0  0  0  0  0
   -2.7406   -4.8275    0.0000 C   0  0  0  0  0  0  0  0  0  0  0  0
   -4.1110   -5.4376    0.0000 C   0  0  0  0  0  0  0  0  0  0  0  0
   -4.2677   -6.9294    0.0000 C   0  0  0  0  0  0  0  0  0  0  0  0
   -5.6381   -7.5395    0.0000 N   0  0  0  0  0  0  0  0  0  0  0  0
   -2.5838   -3.3357    0.0000 C   0  0  0  0  0  0  0  0  0  0  0  0
   -3.7974   -2.4540    0.0000 O   0  0  0  0  0  0  0  0  0  0  0  0
   -1.2135   -2.7256    0.0000 C   0  0  0  0  0  0  0  0  0  0  0  0
   -0.0000   -3.6073    0.0000 C   0  0  0  0  0  0  0  0  0  0  0  0
    1.2135   -2.7256    0.0000 N   0  0  0  0  0  0  0  0  0  0  0  0
    0.7500   -1.2990    0.0000 C   0  0  0  0  0  0  0  0  0  0  0  0
    1.5000    0.0000    0.0000 C   0  0  0  0  0  0  0  0  0  0  0  0
    0.7500    1.2990    0.0000 C   0  0  0  0  0  0  0  0  0  0  0  0
    1.5000    2.5981    0.0000 C   0  0  0  0  0  0  0  0  0  0  0  0
    2.2500    3.8971    0.0000 N   0  0  0  0  0  0  0  0  0  0  0  0
   -0.7500    1.2990    0.0000 C   0  0  0  0  0  0  0  0  0  0  0  0
   -1.5000    0.0000    0.0000 C   0  0  0  0  0  0  0  0  0  0  0  0
   -0.7500   -1.2990    0.0000 C   0  0  0  0  0  0  0  0  0  0  0  0
   -0.1568   -5.0991    0.0000 C   0  0  0  0  0  0  0  0  0  0  0  0
    0.2061   -6.5545    0.0000 C   0  0  0  0  0  0  0  0  0  0  0  0
    1.3396   -4.9944    0.0000 C   0  0  0  0  0  0  0  0  0  0  0  0
   -0.6272   -9.5744    0.0000 C   0  0  0  0  0  0  0  0  0  0  0  0
    0.5864  -10.4561    0.0000 C   0  0  0  0  0  0  0  0  0  0  0  0
  1  2  1  0
  2  3  1  0
  3  4  1  0
  4  5  1  0
  5  6  1  0
  6  7  1  0
  7  8  2  0
  8  9  1  0
  9 10  2  0
 10 11  1  0
 11 12  2  0
 12 13  1  0
 10 14  1  0
 14 15  2  0
 14 16  1  0
 16 17  2  0
 17 18  1  0
 18 19  1  0
 19 20  2  0
 20 21  1  0
 21 22  1  0
 22 23  3  0
 21 24  2  0
 24 25  1  0
 25 26  2  0
 17 27  1  0
 27 28  1  0
 27 29  1  0
  5 30  1  0
 30 31  1  0
 31  2  1  0
 12  7  1  0
 26 16  1  0
 27  9  1  0
 26 19  1  0
M  END
>  <Compound_ID>  (195) 
CHEMBL3961537

>  <Molecule Name>  (195) 
nan

>  <Molecular Weight>  (195) 
414.51

>  <AlogP>  (195) 
3.97

>  <Smiles>  (195) 
CN1CCC(Oc2cc3c(cc2N)C(=O)c2c([nH]c4cc(C#N)ccc24)C3(C)C)CC1

>  <Standard Type>  (195) 
IC50

>  <Standard Relation>  (195) 
'='

>  <Standard Units>  (195) 
nM

>  <Standard Value>  (195) 
3.612

>  <Assay ChEMBL ID>  (195) 
CHEMBL3887074

>  <Assay Description>  (195) 
Inhibition Assay: ALK-inhibiting activity was measured by following an activity of inhibiting phosphorylation by biotinylated peptide (EGPWLEEEEEAYGWMDF). For the detection of phosphorylation of the biotinylated peptide, time-resolved fluorescence measurement was performed using an anti-phosphorylated tyrosine antibody labeled with europium cryptate and streptavidin conjugated to XL665, i.e., an allophycocyanin derivative.

>  <BAO Format ID>  (195) 
BAO_0000357

>  <BAO Label>  (195) 
single protein format

>  <Assay Organism>  (195) 
Homo sapiens

>  <Target ChEMBL ID>  (195) 
CHEMBL4247

>  <Target Name>  (195) 
ALK tyrosine kinase receptor

>  <Target Organism>  (195) 
Homo sapiens

>  <Target Type>  (195) 
SINGLE PROTEIN

>  <Document ChEMBL ID>  (195) 
CHEMBL3886150

>  <Source Description>  (195) 
BindingDB Database

>  <Document Journal>  (195) 
nan

>  <Document Year>  (195) 
2015.0

>  <Active>  (195) 
1.0

>  <bits>  (195) 
<rdkit.DataStructs.cDataStructs.ExplicitBitVect object at 0x000002422C1B9CB0>

>  <Group>  (195) 
G2

$$$$

     RDKit          2D

 31 35  0  0  0  0  0  0  0  0999 V2000
    2.6491   -3.5623    0.0000 C   0  0  0  0  0  0  0  0  0  0  0  0
    1.5000   -2.5981    0.0000 C   0  0  0  0  0  0  0  0  0  0  0  0
    2.6491   -1.6339    0.0000 C   0  0  0  0  0  0  0  0  0  0  0  0
    0.7500   -1.2990    0.0000 C   0  0  0  0  0  0  0  0  0  0  0  0
    1.5000    0.0000    0.0000 C   0  0  0  0  0  0  0  0  0  0  0  0
    0.7500    1.2990    0.0000 C   0  0  0  0  0  0  0  0  0  0  0  0
    1.5000    2.5981    0.0000 O   0  0  0  0  0  0  0  0  0  0  0  0
    3.0000    2.5981    0.0000 C   0  0  0  0  0  0  0  0  0  0  0  0
    3.7500    3.8971    0.0000 C   0  0  0  0  0  0  0  0  0  0  0  0
    5.2500    3.8971    0.0000 N   0  0  0  0  0  0  0  0  0  0  0  0
    6.1317    5.1106    0.0000 C   0  0  0  0  0  0  0  0  0  0  0  0
    7.5583    4.6471    0.0000 C   0  0  0  0  0  0  0  0  0  0  0  0
    7.5583    3.1471    0.0000 N   0  0  0  0  0  0  0  0  0  0  0  0
    6.1317    2.6836    0.0000 C   0  0  0  0  0  0  0  0  0  0  0  0
    5.6682    1.2570    0.0000 O   0  0  0  0  0  0  0  0  0  0  0  0
   -0.7500    1.2990    0.0000 C   0  0  0  0  0  0  0  0  0  0  0  0
   -1.5000    0.0000    0.0000 C   0  0  0  0  0  0  0  0  0  0  0  0
   -0.7500   -1.2990    0.0000 C   0  0  0  0  0  0  0  0  0  0  0  0
   -1.5000   -2.5981    0.0000 C   0  0  0  0  0  0  0  0  0  0  0  0
   -3.0000   -2.5981    0.0000 O   0  0  0  0  0  0  0  0  0  0  0  0
   -0.7500   -3.8971    0.0000 C   0  0  0  0  0  0  0  0  0  0  0  0
    0.7500   -3.8971    0.0000 C   0  0  0  0  0  0  0  0  0  0  0  0
    1.2135   -5.3237    0.0000 N   0  0  0  0  0  0  0  0  0  0  0  0
    0.0000   -6.2054    0.0000 C   0  0  0  0  0  0  0  0  0  0  0  0
   -0.1568   -7.6972    0.0000 C   0  0  0  0  0  0  0  0  0  0  0  0
   -1.5271   -8.3073    0.0000 C   0  0  0  0  0  0  0  0  0  0  0  0
   -1.6839   -9.7990    0.0000 C   0  0  0  0  0  0  0  0  0  0  0  0
   -1.8407  -11.2908    0.0000 N   0  0  0  0  0  0  0  0  0  0  0  0
   -2.7406   -7.4256    0.0000 C   0  0  0  0  0  0  0  0  0  0  0  0
   -2.5838   -5.9338    0.0000 C   0  0  0  0  0  0  0  0  0  0  0  0
   -1.2135   -5.3237    0.0000 C   0  0  0  0  0  0  0  0  0  0  0  0
  1  2  1  0
  2  3  1  0
  2  4  1  0
  4  5  2  0
  5  6  1  0
  6  7  1  0
  7  8  1  0
  8  9  1  0
  9 10  1  0
 10 11  1  0
 11 12  1  0
 12 13  1  0
 13 14  1  0
 14 15  2  0
  6 16  2  0
 16 17  1  0
 17 18  2  0
 18 19  1  0
 19 20  2  0
 19 21  1  0
 21 22  2  0
 22 23  1  0
 23 24  1  0
 24 25  2  0
 25 26  1  0
 26 27  1  0
 27 28  3  0
 26 29  2  0
 29 30  1  0
 30 31  2  0
 22  2  1  0
 31 24  1  0
 18  4  1  0
 31 21  1  0
 14 10  1  0
M  END
>  <Compound_ID>  (196) 
CHEMBL3922741

>  <Molecule Name>  (196) 
nan

>  <Molecular Weight>  (196) 
414.47

>  <AlogP>  (196) 
3.31

>  <Smiles>  (196) 
CC1(C)c2cc(OCCN3CCNC3=O)ccc2C(=O)c2c1[nH]c1cc(C#N)ccc21

>  <Standard Type>  (196) 
IC50

>  <Standard Relation>  (196) 
'='

>  <Standard Units>  (196) 
nM

>  <Standard Value>  (196) 
6.159

>  <Assay ChEMBL ID>  (196) 
CHEMBL3887074

>  <Assay Description>  (196) 
Inhibition Assay: ALK-inhibiting activity was measured by following an activity of inhibiting phosphorylation by biotinylated peptide (EGPWLEEEEEAYGWMDF). For the detection of phosphorylation of the biotinylated peptide, time-resolved fluorescence measurement was performed using an anti-phosphorylated tyrosine antibody labeled with europium cryptate and streptavidin conjugated to XL665, i.e., an allophycocyanin derivative.

>  <BAO Format ID>  (196) 
BAO_0000357

>  <BAO Label>  (196) 
single protein format

>  <Assay Organism>  (196) 
Homo sapiens

>  <Target ChEMBL ID>  (196) 
CHEMBL4247

>  <Target Name>  (196) 
ALK tyrosine kinase receptor

>  <Target Organism>  (196) 
Homo sapiens

>  <Target Type>  (196) 
SINGLE PROTEIN

>  <Document ChEMBL ID>  (196) 
CHEMBL3886150

>  <Source Description>  (196) 
BindingDB Database

>  <Document Journal>  (196) 
nan

>  <Document Year>  (196) 
2015.0

>  <Active>  (196) 
1.0

>  <bits>  (196) 
<rdkit.DataStructs.cDataStructs.ExplicitBitVect object at 0x000002422C1BBBC0>

>  <Group>  (196) 
G2

$$$$

     RDKit          2D

 39 42  0  0  0  0  0  0  0  0999 V2000
    3.7500   -1.2990    0.0000 C   0  0  0  0  0  0  0  0  0  0  0  0
    3.0000    0.0000    0.0000 O   0  0  0  0  0  0  0  0  0  0  0  0
    1.5000    0.0000    0.0000 C   0  0  0  0  0  0  0  0  0  0  0  0
    0.7500   -1.2990    0.0000 C   0  0  0  0  0  0  0  0  0  0  0  0
   -0.7500   -1.2990    0.0000 C   0  0  0  0  0  0  0  0  0  0  0  0
   -1.5000   -2.5981    0.0000 N   0  0  0  0  0  0  0  0  0  0  0  0
   -3.0000   -2.5981    0.0000 C   0  0  0  0  0  0  0  0  0  0  0  0
   -3.7500   -1.2990    0.0000 O   0  0  0  0  0  0  0  0  0  0  0  0
   -3.7500   -3.8971    0.0000 N   0  0  0  0  0  0  0  0  0  0  0  0
   -5.2500   -3.8971    0.0000 C   0  0  0  0  0  0  0  0  0  0  0  0
   -6.0000   -5.1962    0.0000 C   0  0  0  0  0  0  0  0  0  0  0  0
   -5.2500   -6.4952    0.0000 N   0  0  0  0  0  0  0  0  0  0  0  0
   -6.0000   -7.7942    0.0000 C   0  0  0  0  0  0  0  0  0  0  0  0
   -7.5000   -7.7942    0.0000 C   0  0  0  0  0  0  0  0  0  0  0  0
   -8.2500   -9.0933    0.0000 O   0  0  0  0  0  0  0  0  0  0  0  0
   -3.7500   -6.4952    0.0000 C   0  0  0  0  0  0  0  0  0  0  0  0
   -3.0000   -5.1962    0.0000 C   0  0  0  0  0  0  0  0  0  0  0  0
   -1.5000    0.0000    0.0000 C   0  0  0  0  0  0  0  0  0  0  0  0
   -0.7500    1.2990    0.0000 C   0  0  0  0  0  0  0  0  0  0  0  0
    0.7500    1.2990    0.0000 C   0  0  0  0  0  0  0  0  0  0  0  0
    1.5000    2.5981    0.0000 N   0  0  0  0  0  0  0  0  0  0  0  0
    3.0000    2.5981    0.0000 C   0  0  0  0  0  0  0  0  0  0  0  0
    3.7500    1.2990    0.0000 N   0  0  0  0  0  0  0  0  0  0  0  0
    5.2500    1.2990    0.0000 C   0  0  0  0  0  0  0  0  0  0  0  0
    6.0000    2.5981    0.0000 C   0  0  0  0  0  0  0  0  0  0  0  0
    7.5000    2.5981    0.0000 Cl  0  0  0  0  0  0  0  0  0  0  0  0
    5.2500    3.8971    0.0000 C   0  0  0  0  0  0  0  0  0  0  0  0
    6.0000    5.1962    0.0000 N   0  0  0  0  0  0  0  0  0  0  0  0
    5.2500    6.4952    0.0000 C   0  0  0  0  0  0  0  0  0  0  0  0
    6.0000    7.7942    0.0000 C   0  0  0  0  0  0  0  0  0  0  0  0
    5.2500    9.0933    0.0000 C   0  0  0  0  0  0  0  0  0  0  0  0
    3.7500    9.0933    0.0000 C   0  0  0  0  0  0  0  0  0  0  0  0
    3.0000    7.7942    0.0000 C   0  0  0  0  0  0  0  0  0  0  0  0
    3.7500    6.4952    0.0000 C   0  0  0  0  0  0  0  0  0  0  0  0
    3.0000    5.1962    0.0000 N   0  0  0  0  0  0  0  0  0  0  0  0
    1.5000    5.1962    0.0000 C   0  0  0  0  0  0  0  0  0  0  0  0
    0.7500    3.8971    0.0000 C   0  0  0  0  0  0  0  0  0  0  0  0
    0.7500    6.4952    0.0000 O   0  0  0  0  0  0  0  0  0  0  0  0
    3.7500    3.8971    0.0000 N   0  0  0  0  0  0  0  0  0  0  0  0
  1  2  1  0
  2  3  1  0
  3  4  2  0
  4  5  1  0
  5  6  1  0
  6  7  1  0
  7  8  2  0
  7  9  1  0
  9 10  1  0
 10 11  1  0
 11 12  1  0
 12 13  1  0
 13 14  1  0
 14 15  1  0
 12 16  1  0
 16 17  1  0
  5 18  2  0
 18 19  1  0
 19 20  2  0
 20 21  1  0
 21 22  1  0
 22 23  2  0
 23 24  1  0
 24 25  2  0
 25 26  1  0
 25 27  1  0
 27 28  1  0
 28 29  1  0
 29 30  2  0
 30 31  1  0
 31 32  2  0
 32 33  1  0
 33 34  2  0
 34 35  1  0
 35 36  1  0
 36 37  1  0
 36 38  2  0
 27 39  2  0
 20  3  1  0
 39 22  1  0
 17  9  1  0
 34 29  1  0
M  END
>  <Compound_ID>  (197) 
CHEMBL4468370

>  <Molecule Name>  (197) 
nan

>  <Molecular Weight>  (197) 
555.04

>  <AlogP>  (197) 
3.73

>  <Smiles>  (197) 
COc1cc(NC(=O)N2CCN(CCO)CC2)ccc1Nc1ncc(Cl)c(Nc2ccccc2NC(C)=O)n1

>  <Standard Type>  (197) 
IC50

>  <Standard Relation>  (197) 
'='

>  <Standard Units>  (197) 
nM

>  <Standard Value>  (197) 
6.3

>  <Assay ChEMBL ID>  (197) 
CHEMBL4400323

>  <Assay Description>  (197) 
Inhibition of recombinant human N-terminal GST-tagged ALK (1058 to 1620 residues) cytoplasmic domain G1202R mutant using srctide as substrate incubated for 1 hr by mobility shift assay

>  <BAO Format ID>  (197) 
BAO_0000357

>  <BAO Label>  (197) 
single protein format

>  <Assay Organism>  (197) 
Homo sapiens

>  <Target ChEMBL ID>  (197) 
CHEMBL4247

>  <Target Name>  (197) 
ALK tyrosine kinase receptor

>  <Target Organism>  (197) 
Homo sapiens

>  <Target Type>  (197) 
SINGLE PROTEIN

>  <Document ChEMBL ID>  (197) 
CHEMBL4396963

>  <Source Description>  (197) 
Scientific Literature

>  <Document Journal>  (197) 
Bioorg Med Chem

>  <Document Year>  (197) 
2019.0

>  <Active>  (197) 
1.0

>  <bits>  (197) 
<rdkit.DataStructs.cDataStructs.ExplicitBitVect object at 0x000002422C1BBDF0>

>  <Group>  (197) 
G2

$$$$

     RDKit          2D

 42 46  0  0  0  0  0  0  0  0999 V2000
    0.6598   14.9587    0.0000 C   0  0  0  0  0  0  0  0  0  0  0  0
   -0.7668   14.4952    0.0000 C   0  0  0  0  0  0  0  0  0  0  0  0
   -1.0786   13.0279    0.0000 N   0  0  0  0  0  0  0  0  0  0  0  0
    0.0361   12.0242    0.0000 C   0  0  0  0  0  0  0  0  0  0  0  0
   -0.2758   10.5570    0.0000 C   0  0  0  0  0  0  0  0  0  0  0  0
   -1.7024   10.0935    0.0000 C   0  0  0  0  0  0  0  0  0  0  0  0
   -2.0143    8.6263    0.0000 C   0  0  0  0  0  0  0  0  0  0  0  0
   -3.4408    8.1628    0.0000 C   0  0  0  0  0  0  0  0  0  0  0  0
   -3.7527    6.6955    0.0000 C   0  0  0  0  0  0  0  0  0  0  0  0
   -5.1793    6.2320    0.0000 O   0  0  0  0  0  0  0  0  0  0  0  0
   -6.2940    7.2357    0.0000 C   0  0  0  0  0  0  0  0  0  0  0  0
   -7.7206    6.7722    0.0000 C   0  0  0  0  0  0  0  0  0  0  0  0
   -5.9821    8.7029    0.0000 C   0  0  0  0  0  0  0  0  0  0  0  0
   -2.6380    5.6918    0.0000 C   0  0  0  0  0  0  0  0  0  0  0  0
   -2.9499    4.2246    0.0000 N   0  0  0  0  0  0  0  0  0  0  0  0
   -1.8351    3.2209    0.0000 C   0  0  0  0  0  0  0  0  0  0  0  0
   -0.4086    3.6844    0.0000 N   0  0  0  0  0  0  0  0  0  0  0  0
    0.7062    2.6807    0.0000 C   0  0  0  0  0  0  0  0  0  0  0  0
    2.1328    3.1443    0.0000 N   0  0  0  0  0  0  0  0  0  0  0  0
    2.4446    4.6115    0.0000 C   0  0  0  0  0  0  0  0  0  0  0  0
    1.3299    5.6152    0.0000 C   0  0  0  0  0  0  0  0  0  0  0  0
    1.6418    7.0824    0.0000 C   0  0  0  0  0  0  0  0  0  0  0  0
    3.0684    7.5459    0.0000 C   0  0  0  0  0  0  0  0  0  0  0  0
    4.1831    6.5422    0.0000 C   0  0  0  0  0  0  0  0  0  0  0  0
    3.8712    5.0750    0.0000 C   0  0  0  0  0  0  0  0  0  0  0  0
    4.9859    4.0713    0.0000 S   0  0  0  0  0  0  0  0  0  0  0  0
    5.9896    5.1860    0.0000 O   0  0  0  0  0  0  0  0  0  0  0  0
    3.9822    2.9566    0.0000 O   0  0  0  0  0  0  0  0  0  0  0  0
    6.1006    3.0676    0.0000 C   0  0  0  0  0  0  0  0  0  0  0  0
    7.5272    3.5312    0.0000 C   0  0  0  0  0  0  0  0  0  0  0  0
    5.7888    1.6004    0.0000 C   0  0  0  0  0  0  0  0  0  0  0  0
    0.3943    1.2135    0.0000 C   0  0  0  0  0  0  0  0  0  0  0  0
    1.2760    0.0000    0.0000 N   0  0  0  0  0  0  0  0  0  0  0  0
    0.3943   -1.2135    0.0000 N   0  0  0  0  0  0  0  0  0  0  0  0
   -1.0323   -0.7500    0.0000 N   0  0  0  0  0  0  0  0  0  0  0  0
   -1.0323    0.7500    0.0000 C   0  0  0  0  0  0  0  0  0  0  0  0
   -2.1470    1.7537    0.0000 N   0  0  0  0  0  0  0  0  0  0  0  0
   -1.2114    6.1554    0.0000 C   0  0  0  0  0  0  0  0  0  0  0  0
   -0.8995    7.6226    0.0000 C   0  0  0  0  0  0  0  0  0  0  0  0
    0.5271    8.0861    0.0000 C   0  0  0  0  0  0  0  0  0  0  0  0
   -2.8171   11.0972    0.0000 C   0  0  0  0  0  0  0  0  0  0  0  0
   -2.5052   12.5644    0.0000 C   0  0  0  0  0  0  0  0  0  0  0  0
  1  2  1  0
  2  3  1  0
  3  4  1  0
  4  5  1  0
  5  6  1  0
  6  7  1  0
  7  8  2  0
  8  9  1  0
  9 10  1  0
 10 11  1  0
 11 12  1  0
 11 13  1  0
  9 14  2  0
 14 15  1  0
 15 16  1  0
 16 17  2  0
 17 18  1  0
 18 19  1  0
 19 20  1  0
 20 21  2  0
 21 22  1  0
 22 23  2  0
 23 24  1  0
 24 25  2  0
 25 26  1  0
 26 27  2  0
 26 28  2  0
 26 29  1  0
 29 30  1  0
 29 31  1  0
 18 32  2  0
 32 33  1  0
 33 34  1  0
 34 35  2  0
 35 36  1  0
 36 37  2  0
 14 38  1  0
 38 39  2  0
 39 40  1  0
  6 41  1  0
 41 42  1  0
 42  3  1  0
 39  7  1  0
 37 16  1  0
 25 20  1  0
 36 32  1  0
M  END
>  <Compound_ID>  (198) 
CHEMBL3651886

>  <Molecule Name>  (198) 
nan

>  <Molecular Weight>  (198) 
592.77

>  <AlogP>  (198) 
5.71

>  <Smiles>  (198) 
CCN1CCC(c2cc(OC(C)C)c(Nc3nc(Nc4ccccc4S(=O)(=O)C(C)C)c4[nH]nnc4n3)cc2C)CC1

>  <Standard Type>  (198) 
IC50

>  <Standard Relation>  (198) 
'='

>  <Standard Units>  (198) 
nM

>  <Standard Value>  (198) 
39.0

>  <Assay ChEMBL ID>  (198) 
CHEMBL3705165

>  <Assay Description>  (198) 
Enzyme Assay: The inhibition of ALK tyrosine kinase activity may be demonstrated using known methods, for example using the recombinant kinase domain of the ALK in analogy to the VEGF-R kinase assay described in J. Wood et al. Cancer Res. 60, 2178-2189 (2000).

>  <BAO Format ID>  (198) 
BAO_0000357

>  <BAO Label>  (198) 
single protein format

>  <Assay Organism>  (198) 
Homo sapiens

>  <Target ChEMBL ID>  (198) 
CHEMBL4247

>  <Target Name>  (198) 
ALK tyrosine kinase receptor

>  <Target Organism>  (198) 
Homo sapiens

>  <Target Type>  (198) 
SINGLE PROTEIN

>  <Document ChEMBL ID>  (198) 
CHEMBL3638924

>  <Source Description>  (198) 
BindingDB Database

>  <Document Journal>  (198) 
nan

>  <Document Year>  (198) 
2013.0

>  <Active>  (198) 
1.0

>  <bits>  (198) 
<rdkit.DataStructs.cDataStructs.ExplicitBitVect object at 0x000002422C1BBCA0>

>  <Group>  (198) 
G2

$$$$

     RDKit          2D

 48 51  0  0  0  0  0  0  0  0999 V2000
    5.2500   -1.2990    0.0000 C   0  0  0  0  0  0  0  0  0  0  0  0
    3.7500   -1.2990    0.0000 C   0  0  0  0  0  0  0  0  0  0  0  0
    3.0000   -2.5981    0.0000 C   0  0  0  0  0  0  0  0  0  0  0  0
    3.0000    0.0000    0.0000 O   0  0  0  0  0  0  0  0  0  0  0  0
    1.5000    0.0000    0.0000 C   0  0  0  0  0  0  0  0  0  0  0  0
    0.7500   -1.2990    0.0000 C   0  0  0  0  0  0  0  0  0  0  0  0
   -0.7500   -1.2990    0.0000 C   0  0  0  0  0  0  0  0  0  0  0  0
   -1.5000    0.0000    0.0000 C   0  0  0  0  0  0  0  0  0  0  0  0
   -3.0000    0.0000    0.0000 N   0  0  0  0  0  0  0  0  0  0  0  0
   -3.7500    1.2990    0.0000 C   0  0  0  0  0  0  0  0  0  0  0  0
   -3.0000    2.5981    0.0000 O   0  0  0  0  0  0  0  0  0  0  0  0
   -5.2500    1.2990    0.0000 C   0  0  0  0  0  0  0  0  0  0  0  0
   -6.0000    2.5981    0.0000 N   0  0  0  0  0  0  0  0  0  0  0  0
   -7.5000    2.5981    0.0000 C   0  0  0  0  0  0  0  0  0  0  0  0
   -8.2500    1.2990    0.0000 O   0  0  0  0  0  0  0  0  0  0  0  0
   -8.2500    3.8971    0.0000 C   0  0  0  0  0  0  0  0  0  0  0  0
   -7.5000    5.1962    0.0000 C   0  0  0  0  0  0  0  0  0  0  0  0
   -8.2500    6.4952    0.0000 C   0  0  0  0  0  0  0  0  0  0  0  0
   -7.5000    7.7942    0.0000 C   0  0  0  0  0  0  0  0  0  0  0  0
   -6.0000    7.7942    0.0000 C   0  0  0  0  0  0  0  0  0  0  0  0
   -8.2500    9.0933    0.0000 C   0  0  0  0  0  0  0  0  0  0  0  0
   -9.7500    6.4952    0.0000 C   0  0  0  0  0  0  0  0  0  0  0  0
  -10.5000    7.7942    0.0000 O   0  0  0  0  0  0  0  0  0  0  0  0
  -10.5000    5.1962    0.0000 C   0  0  0  0  0  0  0  0  0  0  0  0
   -9.7500    3.8971    0.0000 C   0  0  0  0  0  0  0  0  0  0  0  0
  -10.5000    2.5981    0.0000 O   0  0  0  0  0  0  0  0  0  0  0  0
   -0.7500    1.2990    0.0000 C   0  0  0  0  0  0  0  0  0  0  0  0
    0.7500    1.2990    0.0000 C   0  0  0  0  0  0  0  0  0  0  0  0
    1.5000    2.5981    0.0000 N   0  0  0  0  0  0  0  0  0  0  0  0
    3.0000    2.5981    0.0000 C   0  0  0  0  0  0  0  0  0  0  0  0
    3.7500    1.2990    0.0000 N   0  0  0  0  0  0  0  0  0  0  0  0
    5.2500    1.2990    0.0000 C   0  0  0  0  0  0  0  0  0  0  0  0
    6.0000    2.5981    0.0000 C   0  0  0  0  0  0  0  0  0  0  0  0
    5.2500    3.8971    0.0000 C   0  0  0  0  0  0  0  0  0  0  0  0
    6.0000    5.1962    0.0000 N   0  0  0  0  0  0  0  0  0  0  0  0
    7.5000    5.1962    0.0000 C   0  0  0  0  0  0  0  0  0  0  0  0
    8.2500    3.8971    0.0000 C   0  0  0  0  0  0  0  0  0  0  0  0
    9.7500    3.8971    0.0000 C   0  0  0  0  0  0  0  0  0  0  0  0
   10.5000    5.1962    0.0000 C   0  0  0  0  0  0  0  0  0  0  0  0
    9.7500    6.4952    0.0000 C   0  0  0  0  0  0  0  0  0  0  0  0
    8.2500    6.4952    0.0000 C   0  0  0  0  0  0  0  0  0  0  0  0
    7.5000    7.7942    0.0000 S   0  0  0  0  0  0  0  0  0  0  0  0
    6.2010    7.0442    0.0000 O   0  0  0  0  0  0  0  0  0  0  0  0
    8.7990    8.5442    0.0000 O   0  0  0  0  0  0  0  0  0  0  0  0
    6.7500    9.0933    0.0000 C   0  0  0  0  0  0  0  0  0  0  0  0
    5.2500    9.0933    0.0000 C   0  0  0  0  0  0  0  0  0  0  0  0
    7.5000   10.3923    0.0000 C   0  0  0  0  0  0  0  0  0  0  0  0
    3.7500    3.8971    0.0000 N   0  0  0  0  0  0  0  0  0  0  0  0
  1  2  1  0
  2  3  1  0
  2  4  1  0
  4  5  1  0
  5  6  2  0
  6  7  1  0
  7  8  2  0
  8  9  1  0
  9 10  1  0
 10 11  2  0
 10 12  1  0
 12 13  1  0
 13 14  1  0
 14 15  2  0
 14 16  1  0
 16 17  2  0
 17 18  1  0
 18 19  1  0
 19 20  1  0
 19 21  1  0
 18 22  2  0
 22 23  1  0
 22 24  1  0
 24 25  2  0
 25 26  1  0
  8 27  1  0
 27 28  2  0
 28 29  1  0
 29 30  1  0
 30 31  2  0
 31 32  1  0
 32 33  2  0
 33 34  1  0
 34 35  1  0
 35 36  1  0
 36 37  2  0
 37 38  1  0
 38 39  2  0
 39 40  1  0
 40 41  2  0
 41 42  1  0
 42 43  2  0
 42 44  2  0
 42 45  1  0
 45 46  1  0
 45 47  1  0
 34 48  2  0
 28  5  1  0
 48 30  1  0
 25 16  1  0
 41 36  1  0
M  END
>  <Compound_ID>  (199) 
CHEMBL4176561

>  <Molecule Name>  (199) 
nan

>  <Molecular Weight>  (199) 
676.8

>  <AlogP>  (199) 
5.84

>  <Smiles>  (199) 
CC(C)Oc1ccc(NC(=O)CNC(=O)c2cc(C(C)C)c(O)cc2O)cc1Nc1nccc(Nc2ccccc2S(=O)(=O)C(C)C)n1

>  <Standard Type>  (199) 
IC50

>  <Standard Relation>  (199) 
'='

>  <Standard Units>  (199) 
nM

>  <Standard Value>  (199) 
4.2

>  <Assay ChEMBL ID>  (199) 
CHEMBL4146207

>  <Assay Description>  (199) 
Inhibition of recombinant ALK (unknown origin) using poly (Glu,Tyr) 4:1 as substrate incubated for 60 mins by ELISA

>  <BAO Format ID>  (199) 
BAO_0000357

>  <BAO Label>  (199) 
single protein format

>  <Assay Organism>  (199) 
Homo sapiens

>  <Target ChEMBL ID>  (199) 
CHEMBL4247

>  <Target Name>  (199) 
ALK tyrosine kinase receptor

>  <Target Organism>  (199) 
Homo sapiens

>  <Target Type>  (199) 
SINGLE PROTEIN

>  <Document ChEMBL ID>  (199) 
CHEMBL4145454

>  <Source Description>  (199) 
Scientific Literature

>  <Document Journal>  (199) 
Eur J Med Chem

>  <Document Year>  (199) 
2018.0

>  <Active>  (199) 
1.0

>  <bits>  (199) 
<rdkit.DataStructs.cDataStructs.ExplicitBitVect object at 0x000002422C1BB8B0>

>  <Group>  (199) 
G2

$$$$

     RDKit          2D

 33 36  0  0  0  0  0  0  0  0999 V2000
    3.7500   -1.2990    0.0000 C   0  0  0  0  0  0  0  0  0  0  0  0
    3.0000    0.0000    0.0000 O   0  0  0  0  0  0  0  0  0  0  0  0
    1.5000    0.0000    0.0000 C   0  0  0  0  0  0  0  0  0  0  0  0
    0.7500   -1.2990    0.0000 C   0  0  0  0  0  0  0  0  0  0  0  0
   -0.7500   -1.2990    0.0000 C   0  0  0  0  0  0  0  0  0  0  0  0
   -1.5000   -2.5981    0.0000 N   0  0  0  0  0  0  0  0  0  0  0  0
   -3.0000   -2.5981    0.0000 C   0  0  0  0  0  0  0  0  0  0  0  0
   -3.7500   -3.8971    0.0000 C   0  0  0  0  0  0  0  0  0  0  0  0
   -3.0000   -5.1962    0.0000 O   0  0  0  0  0  0  0  0  0  0  0  0
   -1.5000   -5.1962    0.0000 C   0  0  0  0  0  0  0  0  0  0  0  0
   -0.7500   -3.8971    0.0000 C   0  0  0  0  0  0  0  0  0  0  0  0
   -1.5000    0.0000    0.0000 C   0  0  0  0  0  0  0  0  0  0  0  0
   -0.7500    1.2990    0.0000 C   0  0  0  0  0  0  0  0  0  0  0  0
    0.7500    1.2990    0.0000 C   0  0  0  0  0  0  0  0  0  0  0  0
    1.5000    2.5981    0.0000 N   0  0  0  0  0  0  0  0  0  0  0  0
    3.0000    2.5981    0.0000 C   0  0  0  0  0  0  0  0  0  0  0  0
    3.7500    1.2990    0.0000 N   0  0  0  0  0  0  0  0  0  0  0  0
    5.2500    1.2990    0.0000 C   0  0  0  0  0  0  0  0  0  0  0  0
    6.0000    2.5981    0.0000 C   0  0  0  0  0  0  0  0  0  0  0  0
    7.5000    2.5981    0.0000 Cl  0  0  0  0  0  0  0  0  0  0  0  0
    5.2500    3.8971    0.0000 C   0  0  0  0  0  0  0  0  0  0  0  0
    6.0000    5.1962    0.0000 N   0  0  0  0  0  0  0  0  0  0  0  0
    5.2500    6.4952    0.0000 C   0  0  0  0  0  0  0  0  0  0  0  0
    3.7500    6.4952    0.0000 C   0  0  0  0  0  0  0  0  0  0  0  0
    3.0000    7.7942    0.0000 C   0  0  0  0  0  0  0  0  0  0  0  0
    3.7500    9.0933    0.0000 C   0  0  0  0  0  0  0  0  0  0  0  0
    5.2500    9.0933    0.0000 C   0  0  0  0  0  0  0  0  0  0  0  0
    6.0000    7.7942    0.0000 C   0  0  0  0  0  0  0  0  0  0  0  0
    7.5000    7.7942    0.0000 P   0  0  0  0  0  0  0  0  0  0  0  0
    7.5000    6.2942    0.0000 C   0  0  0  0  0  0  0  0  0  0  0  0
    7.5000    9.2942    0.0000 C   0  0  0  0  0  0  0  0  0  0  0  0
    9.0000    7.7942    0.0000 O   0  0  0  0  0  0  0  0  0  0  0  0
    3.7500    3.8971    0.0000 N   0  0  0  0  0  0  0  0  0  0  0  0
  1  2  1  0
  2  3  1  0
  3  4  2  0
  4  5  1  0
  5  6  1  0
  6  7  1  0
  7  8  1  0
  8  9  1  0
  9 10  1  0
 10 11  1  0
  5 12  2  0
 12 13  1  0
 13 14  2  0
 14 15  1  0
 15 16  1  0
 16 17  2  0
 17 18  1  0
 18 19  2  0
 19 20  1  0
 19 21  1  0
 21 22  1  0
 22 23  1  0
 23 24  2  0
 24 25  1  0
 25 26  2  0
 26 27  1  0
 27 28  2  0
 28 29  1  0
 29 30  1  0
 29 31  1  0
 29 32  2  0
 21 33  2  0
 14  3  1  0
 33 16  1  0
 11  6  1  0
 28 23  1  0
M  END
>  <Compound_ID>  (200) 
CHEMBL3823416

>  <Molecule Name>  (200) 
nan

>  <Molecular Weight>  (200) 
487.93

>  <AlogP>  (200) 
4.71

>  <Smiles>  (200) 
COc1cc(N2CCOCC2)ccc1Nc1ncc(Cl)c(Nc2ccccc2P(C)(C)=O)n1

>  <Standard Type>  (200) 
IC50

>  <Standard Relation>  (200) 
'='

>  <Standard Units>  (200) 
nM

>  <Standard Value>  (200) 
0.24

>  <Assay ChEMBL ID>  (200) 
CHEMBL3824709

>  <Assay Description>  (200) 
Inhibition of human ALK using poly[Glu:Tyr] (4:1) as substrate and [gamma-33P]ATP measured after 1 hr

>  <BAO Format ID>  (200) 
BAO_0000357

>  <BAO Label>  (200) 
single protein format

>  <Assay Organism>  (200) 
Homo sapiens

>  <Target ChEMBL ID>  (200) 
CHEMBL4247

>  <Target Name>  (200) 
ALK tyrosine kinase receptor

>  <Target Organism>  (200) 
Homo sapiens

>  <Target Type>  (200) 
SINGLE PROTEIN

>  <Document ChEMBL ID>  (200) 
CHEMBL3822358

>  <Source Description>  (200) 
Scientific Literature

>  <Document Journal>  (200) 
J Med Chem

>  <Document Year>  (200) 
2016.0

>  <Active>  (200) 
1.0

>  <bits>  (200) 
<rdkit.DataStructs.cDataStructs.ExplicitBitVect object at 0x000002422C1BAFF0>

>  <Group>  (200) 
G2

$$$$

     RDKit          2D

 38 42  0  0  0  0  0  0  0  0999 V2000
    3.7500   -1.2990    0.0000 C   0  0  0  0  0  0  0  0  0  0  0  0
    3.0000    0.0000    0.0000 O   0  0  0  0  0  0  0  0  0  0  0  0
    1.5000    0.0000    0.0000 C   0  0  0  0  0  0  0  0  0  0  0  0
    0.7500   -1.2990    0.0000 C   0  0  0  0  0  0  0  0  0  0  0  0
   -0.7500   -1.2990    0.0000 C   0  0  0  0  0  0  0  0  0  0  0  0
   -1.5000   -2.5981    0.0000 C   0  0  0  0  0  0  0  0  0  0  0  0
   -0.8899   -3.9684    0.0000 C   0  0  0  0  0  0  0  0  0  0  0  0
   -2.0046   -4.9721    0.0000 N   0  0  0  0  0  0  0  0  0  0  0  0
   -3.3037   -4.2221    0.0000 N   0  0  0  0  0  0  0  0  0  0  0  0
   -4.6740   -4.8322    0.0000 C   0  0  0  0  0  0  0  0  0  0  0  0
   -5.8875   -3.9505    0.0000 C   0  0  0  0  0  0  0  0  0  0  0  0
   -7.2578   -4.5606    0.0000 C   0  0  0  0  0  0  0  0  0  0  0  0
   -7.4146   -6.0524    0.0000 N   0  0  0  0  0  0  0  0  0  0  0  0
   -6.2011   -6.9341    0.0000 C   0  0  0  0  0  0  0  0  0  0  0  0
   -4.8308   -6.3240    0.0000 C   0  0  0  0  0  0  0  0  0  0  0  0
   -2.9918   -2.7549    0.0000 C   0  0  0  0  0  0  0  0  0  0  0  0
   -1.5000    0.0000    0.0000 C   0  0  0  0  0  0  0  0  0  0  0  0
   -0.7500    1.2990    0.0000 C   0  0  0  0  0  0  0  0  0  0  0  0
    0.7500    1.2990    0.0000 C   0  0  0  0  0  0  0  0  0  0  0  0
    1.5000    2.5981    0.0000 N   0  0  0  0  0  0  0  0  0  0  0  0
    3.0000    2.5981    0.0000 C   0  0  0  0  0  0  0  0  0  0  0  0
    3.7500    1.2990    0.0000 N   0  0  0  0  0  0  0  0  0  0  0  0
    5.2500    1.2990    0.0000 C   0  0  0  0  0  0  0  0  0  0  0  0
    6.0000    2.5981    0.0000 C   0  0  0  0  0  0  0  0  0  0  0  0
    7.5000    2.5981    0.0000 Cl  0  0  0  0  0  0  0  0  0  0  0  0
    5.2500    3.8971    0.0000 C   0  0  0  0  0  0  0  0  0  0  0  0
    6.0000    5.1962    0.0000 N   0  0  0  0  0  0  0  0  0  0  0  0
    5.2500    6.4952    0.0000 C   0  0  0  0  0  0  0  0  0  0  0  0
    3.7500    6.4952    0.0000 C   0  0  0  0  0  0  0  0  0  0  0  0
    3.0000    7.7942    0.0000 C   0  0  0  0  0  0  0  0  0  0  0  0
    3.7500    9.0933    0.0000 C   0  0  0  0  0  0  0  0  0  0  0  0
    5.2500    9.0933    0.0000 C   0  0  0  0  0  0  0  0  0  0  0  0
    6.0000    7.7942    0.0000 C   0  0  0  0  0  0  0  0  0  0  0  0
    7.5000    7.7942    0.0000 P   0  0  0  0  0  0  0  0  0  0  0  0
    7.5000    6.2942    0.0000 C   0  0  0  0  0  0  0  0  0  0  0  0
    7.5000    9.2942    0.0000 C   0  0  0  0  0  0  0  0  0  0  0  0
    9.0000    7.7942    0.0000 O   0  0  0  0  0  0  0  0  0  0  0  0
    3.7500    3.8971    0.0000 N   0  0  0  0  0  0  0  0  0  0  0  0
  1  2  1  0
  2  3  1  0
  3  4  2  0
  4  5  1  0
  5  6  1  0
  6  7  1  0
  7  8  2  0
  8  9  1  0
  9 10  1  0
 10 11  1  0
 11 12  1  0
 12 13  1  0
 13 14  1  0
 14 15  1  0
  9 16  1  0
  5 17  2  0
 17 18  1  0
 18 19  2  0
 19 20  1  0
 20 21  1  0
 21 22  2  0
 22 23  1  0
 23 24  2  0
 24 25  1  0
 24 26  1  0
 26 27  1  0
 27 28  1  0
 28 29  2  0
 29 30  1  0
 30 31  2  0
 31 32  1  0
 32 33  2  0
 33 34  1  0
 34 35  1  0
 34 36  1  0
 34 37  2  0
 26 38  2  0
 19  3  1  0
 38 21  1  0
 16  6  2  0
 33 28  1  0
 15 10  1  0
M  END
>  <Compound_ID>  (201) 
CHEMBL3822645

>  <Molecule Name>  (201) 
nan

>  <Molecular Weight>  (201) 
552.02

>  <AlogP>  (201) 
5.66

>  <Smiles>  (201) 
COc1cc(-c2cnn(C3CCNCC3)c2)ccc1Nc1ncc(Cl)c(Nc2ccccc2P(C)(C)=O)n1

>  <Standard Type>  (201) 
IC50

>  <Standard Relation>  (201) 
'='

>  <Standard Units>  (201) 
nM

>  <Standard Value>  (201) 
0.76

>  <Assay ChEMBL ID>  (201) 
CHEMBL3824709

>  <Assay Description>  (201) 
Inhibition of human ALK using poly[Glu:Tyr] (4:1) as substrate and [gamma-33P]ATP measured after 1 hr

>  <BAO Format ID>  (201) 
BAO_0000357

>  <BAO Label>  (201) 
single protein format

>  <Assay Organism>  (201) 
Homo sapiens

>  <Target ChEMBL ID>  (201) 
CHEMBL4247

>  <Target Name>  (201) 
ALK tyrosine kinase receptor

>  <Target Organism>  (201) 
Homo sapiens

>  <Target Type>  (201) 
SINGLE PROTEIN

>  <Document ChEMBL ID>  (201) 
CHEMBL3822358

>  <Source Description>  (201) 
Scientific Literature

>  <Document Journal>  (201) 
J Med Chem

>  <Document Year>  (201) 
2016.0

>  <Active>  (201) 
1.0

>  <bits>  (201) 
<rdkit.DataStructs.cDataStructs.ExplicitBitVect object at 0x000002422C1B9EE0>

>  <Group>  (201) 
G2

$$$$

     RDKit          2D

 38 42  0  0  0  0  0  0  0  0999 V2000
   -6.0000   -2.5981    0.0000 C   0  0  0  0  0  0  0  0  0  0  0  0
   -5.2500   -3.8971    0.0000 O   0  0  0  0  0  0  0  0  0  0  0  0
   -3.7500   -3.8971    0.0000 C   0  0  0  0  0  0  0  0  0  0  0  0
   -3.0000   -2.5981    0.0000 C   0  0  0  0  0  0  0  0  0  0  0  0
   -1.5000   -2.5981    0.0000 C   0  0  0  0  0  0  0  0  0  0  0  0
   -0.7500   -3.8971    0.0000 C   0  0  0  0  0  0  0  0  0  0  0  0
   -1.5000   -5.1962    0.0000 C   0  0  0  0  0  0  0  0  0  0  0  0
   -3.0000   -5.1962    0.0000 C   0  0  0  0  0  0  0  0  0  0  0  0
   -3.7500   -6.4952    0.0000 N   0  0  0  0  0  0  0  0  0  0  0  0
   -5.2500   -6.4952    0.0000 C   0  0  0  0  0  0  0  0  0  0  0  0
   -6.0000   -5.1962    0.0000 N   0  0  0  0  0  0  0  0  0  0  0  0
   -7.5000   -5.1962    0.0000 C   0  0  0  0  0  0  0  0  0  0  0  0
   -8.2500   -6.4952    0.0000 C   0  0  0  0  0  0  0  0  0  0  0  0
   -9.7500   -6.4952    0.0000 Cl  0  0  0  0  0  0  0  0  0  0  0  0
   -7.5000   -7.7942    0.0000 C   0  0  0  0  0  0  0  0  0  0  0  0
   -8.2500   -9.0933    0.0000 N   0  0  0  0  0  0  0  0  0  0  0  0
   -7.5000  -10.3923    0.0000 C   0  0  0  0  0  0  0  0  0  0  0  0
   -6.0000  -10.3923    0.0000 C   0  0  0  0  0  0  0  0  0  0  0  0
   -5.2500  -11.6913    0.0000 C   0  0  0  0  0  0  0  0  0  0  0  0
   -6.0000  -12.9904    0.0000 C   0  0  0  0  0  0  0  0  0  0  0  0
   -7.5000  -12.9904    0.0000 C   0  0  0  0  0  0  0  0  0  0  0  0
   -8.2500  -11.6913    0.0000 C   0  0  0  0  0  0  0  0  0  0  0  0
   -9.7500  -11.6913    0.0000 S   0  0  0  0  0  0  0  0  0  0  0  0
   -9.7500  -10.1913    0.0000 O   0  0  0  0  0  0  0  0  0  0  0  0
   -9.7500  -13.1913    0.0000 O   0  0  0  0  0  0  0  0  0  0  0  0
  -11.2500  -11.6913    0.0000 C   0  0  0  0  0  0  0  0  0  0  0  0
  -12.0000  -12.9904    0.0000 C   0  0  0  0  0  0  0  0  0  0  0  0
  -12.0000  -10.3923    0.0000 C   0  0  0  0  0  0  0  0  0  0  0  0
   -6.0000   -7.7942    0.0000 N   0  0  0  0  0  0  0  0  0  0  0  0
    0.7500   -3.8971    0.0000 C   0  0  0  0  0  0  0  0  0  0  0  0
    1.5000   -2.5981    0.0000 C   0  0  0  0  0  0  0  0  0  0  0  0
    0.7500   -1.2990    0.0000 C   0  0  0  0  0  0  0  0  0  0  0  0
    1.5000    0.0000    0.0000 N   0  0  0  0  0  0  0  0  0  0  0  0
    0.7500    1.2990    0.0000 N   0  0  0  0  0  0  0  0  0  0  0  0
    1.5000    2.5981    0.0000 C   0  0  0  0  0  0  0  0  0  0  0  0
   -0.7500    1.2990    0.0000 C   0  0  0  0  0  0  0  0  0  0  0  0
   -1.5000    0.0000    0.0000 C   0  0  0  0  0  0  0  0  0  0  0  0
   -0.7500   -1.2990    0.0000 N   0  0  0  0  0  0  0  0  0  0  0  0
  1  2  1  0
  2  3  1  0
  3  4  2  0
  4  5  1  0
  5  6  2  0
  6  7  1  0
  7  8  2  0
  8  9  1  0
  9 10  1  0
 10 11  2  0
 11 12  1  0
 12 13  2  0
 13 14  1  0
 13 15  1  0
 15 16  1  0
 16 17  1  0
 17 18  2  0
 18 19  1  0
 19 20  2  0
 20 21  1  0
 21 22  2  0
 22 23  1  0
 23 24  2  0
 23 25  2  0
 23 26  1  0
 26 27  1  0
 26 28  1  0
 15 29  2  0
  6 30  1  0
 30 31  1  0
 31 32  1  0
 32 33  2  0
 33 34  1  0
 34 35  1  0
 34 36  1  0
 36 37  1  0
 37 38  1  0
  8  3  1  0
 29 10  1  0
 38 32  1  0
 38  5  1  0
 22 17  1  0
M  END
>  <Compound_ID>  (202) 
CHEMBL4099922

>  <Molecule Name>  (202) 
nan

>  <Molecular Weight>  (202) 
556.09

>  <AlogP>  (202) 
4.82

>  <Smiles>  (202) 
COc1cc2c(cc1Nc1ncc(Cl)c(Nc3ccccc3S(=O)(=O)C(C)C)n1)CCC1=NN(C)CCN12

>  <Standard Type>  (202) 
IC50

>  <Standard Relation>  (202) 
'='

>  <Standard Units>  (202) 
nM

>  <Standard Value>  (202) 
1.7

>  <Assay ChEMBL ID>  (202) 
CHEMBL4017791

>  <Assay Description>  (202) 
Inhibition of wild type ALK (unknown origin) using TK as substrate after 30 mins by HTRF assay

>  <BAO Format ID>  (202) 
BAO_0000357

>  <BAO Label>  (202) 
single protein format

>  <Assay Organism>  (202) 
Homo sapiens

>  <Target ChEMBL ID>  (202) 
CHEMBL4247

>  <Target Name>  (202) 
ALK tyrosine kinase receptor

>  <Target Organism>  (202) 
Homo sapiens

>  <Target Type>  (202) 
SINGLE PROTEIN

>  <Document ChEMBL ID>  (202) 
CHEMBL4017457

>  <Source Description>  (202) 
Scientific Literature

>  <Document Journal>  (202) 
Bioorg Med Chem Lett

>  <Document Year>  (202) 
2017.0

>  <Active>  (202) 
1.0

>  <bits>  (202) 
<rdkit.DataStructs.cDataStructs.ExplicitBitVect object at 0x000002422C1BAC70>

>  <Group>  (202) 
G2

$$$$

     RDKit          2D

 37 41  0  0  0  0  0  0  0  0999 V2000
   -6.4268    0.3631    0.0000 C   0  0  0  0  0  0  0  0  0  0  0  0
   -6.1149    1.8303    0.0000 O   0  0  0  0  0  0  0  0  0  0  0  0
   -4.6883    2.2939    0.0000 C   0  0  0  0  0  0  0  0  0  0  0  0
   -3.5736    1.2902    0.0000 C   0  0  0  0  0  0  0  0  0  0  0  0
   -2.1470    1.7537    0.0000 C   0  0  0  0  0  0  0  0  0  0  0  0
   -1.8351    3.2209    0.0000 C   0  0  0  0  0  0  0  0  0  0  0  0
   -2.9499    4.2246    0.0000 C   0  0  0  0  0  0  0  0  0  0  0  0
   -4.3764    3.7611    0.0000 C   0  0  0  0  0  0  0  0  0  0  0  0
   -5.4912    4.7648    0.0000 N   0  0  0  0  0  0  0  0  0  0  0  0
   -5.1793    6.2320    0.0000 C   0  0  0  0  0  0  0  0  0  0  0  0
   -3.7527    6.6955    0.0000 N   0  0  0  0  0  0  0  0  0  0  0  0
   -3.4408    8.1628    0.0000 C   0  0  0  0  0  0  0  0  0  0  0  0
   -4.5556    9.1664    0.0000 C   0  0  0  0  0  0  0  0  0  0  0  0
   -4.2437   10.6337    0.0000 Cl  0  0  0  0  0  0  0  0  0  0  0  0
   -5.9821    8.7029    0.0000 C   0  0  0  0  0  0  0  0  0  0  0  0
   -7.0969    9.7066    0.0000 N   0  0  0  0  0  0  0  0  0  0  0  0
   -8.5234    9.2431    0.0000 C   0  0  0  0  0  0  0  0  0  0  0  0
   -8.8353    7.7759    0.0000 C   0  0  0  0  0  0  0  0  0  0  0  0
  -10.2619    7.3123    0.0000 C   0  0  0  0  0  0  0  0  0  0  0  0
  -11.3766    8.3160    0.0000 C   0  0  0  0  0  0  0  0  0  0  0  0
  -11.0647    9.7833    0.0000 C   0  0  0  0  0  0  0  0  0  0  0  0
   -9.6382   10.2468    0.0000 C   0  0  0  0  0  0  0  0  0  0  0  0
   -9.3263   11.7140    0.0000 S   0  0  0  0  0  0  0  0  0  0  0  0
   -7.8591   11.4021    0.0000 O   0  0  0  0  0  0  0  0  0  0  0  0
  -10.7935   12.0259    0.0000 O   0  0  0  0  0  0  0  0  0  0  0  0
   -9.0144   13.1812    0.0000 C   0  0  0  0  0  0  0  0  0  0  0  0
   -7.5878   13.6448    0.0000 C   0  0  0  0  0  0  0  0  0  0  0  0
  -10.1291   14.1849    0.0000 C   0  0  0  0  0  0  0  0  0  0  0  0
   -6.2940    7.2357    0.0000 N   0  0  0  0  0  0  0  0  0  0  0  0
   -0.4086    3.6844    0.0000 C   0  0  0  0  0  0  0  0  0  0  0  0
    0.7062    2.6807    0.0000 C   0  0  0  0  0  0  0  0  0  0  0  0
    0.3943    1.2135    0.0000 C   0  0  0  0  0  0  0  0  0  0  0  0
    1.2760    0.0000    0.0000 N   0  0  0  0  0  0  0  0  0  0  0  0
    0.3943   -1.2135    0.0000 N   0  0  0  0  0  0  0  0  0  0  0  0
   -1.0323   -0.7500    0.0000 C   0  0  0  0  0  0  0  0  0  0  0  0
   -2.2458   -1.6317    0.0000 C   0  0  0  0  0  0  0  0  0  0  0  0
   -1.0323    0.7500    0.0000 C   0  0  0  0  0  0  0  0  0  0  0  0
  1  2  1  0
  2  3  1  0
  3  4  2  0
  4  5  1  0
  5  6  2  0
  6  7  1  0
  7  8  2  0
  8  9  1  0
  9 10  1  0
 10 11  2  0
 11 12  1  0
 12 13  2  0
 13 14  1  0
 13 15  1  0
 15 16  1  0
 16 17  1  0
 17 18  2  0
 18 19  1  0
 19 20  2  0
 20 21  1  0
 21 22  2  0
 22 23  1  0
 23 24  2  0
 23 25  2  0
 23 26  1  0
 26 27  1  0
 26 28  1  0
 15 29  2  0
  6 30  1  0
 30 31  1  0
 31 32  1  0
 32 33  2  0
 33 34  1  0
 34 35  1  0
 35 36  1  0
 35 37  2  0
  8  3  1  0
 29 10  1  0
 37 32  1  0
 37  5  1  0
 22 17  1  0
M  END
>  <Compound_ID>  (203) 
CHEMBL4091729

>  <Molecule Name>  (203) 
nan

>  <Molecular Weight>  (203) 
539.06

>  <AlogP>  (203) 
5.61

>  <Smiles>  (203) 
COc1cc2c(cc1Nc1ncc(Cl)c(Nc3ccccc3S(=O)(=O)C(C)C)n1)CCc1n[nH]c(C)c1-2

>  <Standard Type>  (203) 
IC50

>  <Standard Relation>  (203) 
'='

>  <Standard Units>  (203) 
nM

>  <Standard Value>  (203) 
29.0

>  <Assay ChEMBL ID>  (203) 
CHEMBL4017791

>  <Assay Description>  (203) 
Inhibition of wild type ALK (unknown origin) using TK as substrate after 30 mins by HTRF assay

>  <BAO Format ID>  (203) 
BAO_0000357

>  <BAO Label>  (203) 
single protein format

>  <Assay Organism>  (203) 
Homo sapiens

>  <Target ChEMBL ID>  (203) 
CHEMBL4247

>  <Target Name>  (203) 
ALK tyrosine kinase receptor

>  <Target Organism>  (203) 
Homo sapiens

>  <Target Type>  (203) 
SINGLE PROTEIN

>  <Document ChEMBL ID>  (203) 
CHEMBL4017457

>  <Source Description>  (203) 
Scientific Literature

>  <Document Journal>  (203) 
Bioorg Med Chem Lett

>  <Document Year>  (203) 
2017.0

>  <Active>  (203) 
1.0

>  <bits>  (203) 
<rdkit.DataStructs.cDataStructs.ExplicitBitVect object at 0x000002422C1BBC30>

>  <Group>  (203) 
G2

$$$$

     RDKit          2D

 36 39  0  0  0  0  0  0  0  0999 V2000
    3.7500   -1.2990    0.0000 C   0  0  0  0  0  0  0  0  0  0  0  0
    3.0000    0.0000    0.0000 O   0  0  0  0  0  0  0  0  0  0  0  0
    1.5000    0.0000    0.0000 C   0  0  0  0  0  0  0  0  0  0  0  0
    0.7500   -1.2990    0.0000 C   0  0  0  0  0  0  0  0  0  0  0  0
   -0.7500   -1.2990    0.0000 C   0  0  0  0  0  0  0  0  0  0  0  0
   -1.5000   -2.5981    0.0000 O   0  0  0  0  0  0  0  0  0  0  0  0
   -3.0000   -2.5981    0.0000 C   0  0  0  0  0  0  0  0  0  0  0  0
   -3.7500   -3.8971    0.0000 C   0  0  0  0  0  0  0  0  0  0  0  0
   -5.2500   -3.8971    0.0000 C   0  0  0  0  0  0  0  0  0  0  0  0
   -6.0000   -5.1962    0.0000 N   0  0  0  0  0  0  0  0  0  0  0  0
   -5.3899   -6.5665    0.0000 C   0  0  0  0  0  0  0  0  0  0  0  0
   -6.5046   -7.5702    0.0000 C   0  0  0  0  0  0  0  0  0  0  0  0
   -7.8037   -6.8202    0.0000 C   0  0  0  0  0  0  0  0  0  0  0  0
   -7.4918   -5.3529    0.0000 C   0  0  0  0  0  0  0  0  0  0  0  0
   -1.5000    0.0000    0.0000 C   0  0  0  0  0  0  0  0  0  0  0  0
   -0.7500    1.2990    0.0000 C   0  0  0  0  0  0  0  0  0  0  0  0
    0.7500    1.2990    0.0000 C   0  0  0  0  0  0  0  0  0  0  0  0
    1.5000    2.5981    0.0000 N   0  0  0  0  0  0  0  0  0  0  0  0
    3.0000    2.5981    0.0000 C   0  0  0  0  0  0  0  0  0  0  0  0
    3.7500    1.2990    0.0000 N   0  0  0  0  0  0  0  0  0  0  0  0
    5.2500    1.2990    0.0000 C   0  0  0  0  0  0  0  0  0  0  0  0
    6.0000    2.5981    0.0000 C   0  0  0  0  0  0  0  0  0  0  0  0
    7.5000    2.5981    0.0000 Cl  0  0  0  0  0  0  0  0  0  0  0  0
    5.2500    3.8971    0.0000 C   0  0  0  0  0  0  0  0  0  0  0  0
    6.0000    5.1962    0.0000 N   0  0  0  0  0  0  0  0  0  0  0  0
    5.2500    6.4952    0.0000 C   0  0  0  0  0  0  0  0  0  0  0  0
    3.7500    6.4952    0.0000 C   0  0  0  0  0  0  0  0  0  0  0  0
    3.0000    7.7942    0.0000 C   0  0  0  0  0  0  0  0  0  0  0  0
    3.7500    9.0933    0.0000 C   0  0  0  0  0  0  0  0  0  0  0  0
    5.2500    9.0933    0.0000 C   0  0  0  0  0  0  0  0  0  0  0  0
    6.0000    7.7942    0.0000 C   0  0  0  0  0  0  0  0  0  0  0  0
    7.5000    7.7942    0.0000 P   0  0  0  0  0  0  0  0  0  0  0  0
    7.5000    6.2942    0.0000 C   0  0  0  0  0  0  0  0  0  0  0  0
    7.5000    9.2942    0.0000 C   0  0  0  0  0  0  0  0  0  0  0  0
    9.0000    7.7942    0.0000 O   0  0  0  0  0  0  0  0  0  0  0  0
    3.7500    3.8971    0.0000 N   0  0  0  0  0  0  0  0  0  0  0  0
  1  2  1  0
  2  3  1  0
  3  4  2  0
  4  5  1  0
  5  6  1  0
  6  7  1  0
  7  8  1  0
  8  9  1  0
  9 10  1  0
 10 11  1  0
 11 12  1  0
 12 13  1  0
 13 14  1  0
  5 15  2  0
 15 16  1  0
 16 17  2  0
 17 18  1  0
 18 19  1  0
 19 20  2  0
 20 21  1  0
 21 22  2  0
 22 23  1  0
 22 24  1  0
 24 25  1  0
 25 26  1  0
 26 27  2  0
 27 28  1  0
 28 29  2  0
 29 30  1  0
 30 31  2  0
 31 32  1  0
 32 33  1  0
 32 34  1  0
 32 35  2  0
 24 36  2  0
 17  3  1  0
 36 19  1  0
 14 10  1  0
 31 26  1  0
M  END
>  <Compound_ID>  (204) 
CHEMBL3823549

>  <Molecule Name>  (204) 
nan

>  <Molecular Weight>  (204) 
530.01

>  <AlogP>  (204) 
5.74

>  <Smiles>  (204) 
COc1cc(OCCCN2CCCC2)ccc1Nc1ncc(Cl)c(Nc2ccccc2P(C)(C)=O)n1

>  <Standard Type>  (204) 
IC50

>  <Standard Relation>  (204) 
'='

>  <Standard Units>  (204) 
nM

>  <Standard Value>  (204) 
0.22

>  <Assay ChEMBL ID>  (204) 
CHEMBL3824709

>  <Assay Description>  (204) 
Inhibition of human ALK using poly[Glu:Tyr] (4:1) as substrate and [gamma-33P]ATP measured after 1 hr

>  <BAO Format ID>  (204) 
BAO_0000357

>  <BAO Label>  (204) 
single protein format

>  <Assay Organism>  (204) 
Homo sapiens

>  <Target ChEMBL ID>  (204) 
CHEMBL4247

>  <Target Name>  (204) 
ALK tyrosine kinase receptor

>  <Target Organism>  (204) 
Homo sapiens

>  <Target Type>  (204) 
SINGLE PROTEIN

>  <Document ChEMBL ID>  (204) 
CHEMBL3822358

>  <Source Description>  (204) 
Scientific Literature

>  <Document Journal>  (204) 
J Med Chem

>  <Document Year>  (204) 
2016.0

>  <Active>  (204) 
1.0

>  <bits>  (204) 
<rdkit.DataStructs.cDataStructs.ExplicitBitVect object at 0x000002422C1BAD50>

>  <Group>  (204) 
G2

$$$$

     RDKit          2D

 31 33  0  0  0  0  0  0  0  0999 V2000
    3.7500   -1.2990    0.0000 C   0  0  0  0  0  0  0  0  0  0  0  0
    3.0000    0.0000    0.0000 O   0  0  0  0  0  0  0  0  0  0  0  0
    1.5000    0.0000    0.0000 C   0  0  0  0  0  0  0  0  0  0  0  0
    0.7500   -1.2990    0.0000 C   0  0  0  0  0  0  0  0  0  0  0  0
   -0.7500   -1.2990    0.0000 C   0  0  0  0  0  0  0  0  0  0  0  0
   -1.5000   -2.5981    0.0000 P   0  0  0  0  0  0  0  0  0  0  0  0
   -0.2010   -3.3481    0.0000 C   0  0  0  0  0  0  0  0  0  0  0  0
   -2.7990   -1.8481    0.0000 C   0  0  0  0  0  0  0  0  0  0  0  0
   -2.2500   -3.8971    0.0000 O   0  0  0  0  0  0  0  0  0  0  0  0
   -1.5000    0.0000    0.0000 C   0  0  0  0  0  0  0  0  0  0  0  0
   -0.7500    1.2990    0.0000 C   0  0  0  0  0  0  0  0  0  0  0  0
    0.7500    1.2990    0.0000 C   0  0  0  0  0  0  0  0  0  0  0  0
    1.5000    2.5981    0.0000 N   0  0  0  0  0  0  0  0  0  0  0  0
    3.0000    2.5981    0.0000 C   0  0  0  0  0  0  0  0  0  0  0  0
    3.7500    1.2990    0.0000 N   0  0  0  0  0  0  0  0  0  0  0  0
    5.2500    1.2990    0.0000 C   0  0  0  0  0  0  0  0  0  0  0  0
    6.0000    2.5981    0.0000 C   0  0  0  0  0  0  0  0  0  0  0  0
    7.5000    2.5981    0.0000 Cl  0  0  0  0  0  0  0  0  0  0  0  0
    5.2500    3.8971    0.0000 C   0  0  0  0  0  0  0  0  0  0  0  0
    6.0000    5.1962    0.0000 N   0  0  0  0  0  0  0  0  0  0  0  0
    5.2500    6.4952    0.0000 C   0  0  0  0  0  0  0  0  0  0  0  0
    3.7500    6.4952    0.0000 C   0  0  0  0  0  0  0  0  0  0  0  0
    3.0000    7.7942    0.0000 C   0  0  0  0  0  0  0  0  0  0  0  0
    3.7500    9.0933    0.0000 C   0  0  0  0  0  0  0  0  0  0  0  0
    5.2500    9.0933    0.0000 C   0  0  0  0  0  0  0  0  0  0  0  0
    6.0000    7.7942    0.0000 C   0  0  0  0  0  0  0  0  0  0  0  0
    7.5000    7.7942    0.0000 S   0  0  0  0  0  0  0  0  0  0  0  0
    9.0000    7.7942    0.0000 C   0  0  0  0  0  0  0  0  0  0  0  0
    7.5000    6.2942    0.0000 O   0  0  0  0  0  0  0  0  0  0  0  0
    7.5000    9.2942    0.0000 O   0  0  0  0  0  0  0  0  0  0  0  0
    3.7500    3.8971    0.0000 N   0  0  0  0  0  0  0  0  0  0  0  0
  1  2  1  0
  2  3  1  0
  3  4  2  0
  4  5  1  0
  5  6  1  0
  6  7  1  0
  6  8  1  0
  6  9  2  0
  5 10  2  0
 10 11  1  0
 11 12  2  0
 12 13  1  0
 13 14  1  0
 14 15  2  0
 15 16  1  0
 16 17  2  0
 17 18  1  0
 17 19  1  0
 19 20  1  0
 20 21  1  0
 21 22  2  0
 22 23  1  0
 23 24  2  0
 24 25  1  0
 25 26  2  0
 26 27  1  0
 27 28  1  0
 27 29  2  0
 27 30  2  0
 19 31  2  0
 12  3  1  0
 31 14  1  0
 26 21  1  0
M  END
>  <Compound_ID>  (205) 
CHEMBL3823256

>  <Molecule Name>  (205) 
nan

>  <Molecular Weight>  (205) 
480.91

>  <AlogP>  (205) 
4.28

>  <Smiles>  (205) 
COc1cc(P(C)(C)=O)ccc1Nc1ncc(Cl)c(Nc2ccccc2S(C)(=O)=O)n1

>  <Standard Type>  (205) 
IC50

>  <Standard Relation>  (205) 
'='

>  <Standard Units>  (205) 
nM

>  <Standard Value>  (205) 
0.33

>  <Assay ChEMBL ID>  (205) 
CHEMBL3824709

>  <Assay Description>  (205) 
Inhibition of human ALK using poly[Glu:Tyr] (4:1) as substrate and [gamma-33P]ATP measured after 1 hr

>  <BAO Format ID>  (205) 
BAO_0000357

>  <BAO Label>  (205) 
single protein format

>  <Assay Organism>  (205) 
Homo sapiens

>  <Target ChEMBL ID>  (205) 
CHEMBL4247

>  <Target Name>  (205) 
ALK tyrosine kinase receptor

>  <Target Organism>  (205) 
Homo sapiens

>  <Target Type>  (205) 
SINGLE PROTEIN

>  <Document ChEMBL ID>  (205) 
CHEMBL3822358

>  <Source Description>  (205) 
Scientific Literature

>  <Document Journal>  (205) 
J Med Chem

>  <Document Year>  (205) 
2016.0

>  <Active>  (205) 
1.0

>  <bits>  (205) 
<rdkit.DataStructs.cDataStructs.ExplicitBitVect object at 0x000002422C1BA260>

>  <Group>  (205) 
G2

$$$$

     RDKit          2D

 40 44  0  0  0  0  0  0  0  0999 V2000
    3.7500   -1.2990    0.0000 C   0  0  0  0  0  0  0  0  0  0  0  0
    3.0000    0.0000    0.0000 O   0  0  0  0  0  0  0  0  0  0  0  0
    1.5000    0.0000    0.0000 C   0  0  0  0  0  0  0  0  0  0  0  0
    0.7500   -1.2990    0.0000 C   0  0  0  0  0  0  0  0  0  0  0  0
   -0.7500   -1.2990    0.0000 C   0  0  0  0  0  0  0  0  0  0  0  0
   -1.5000   -2.5981    0.0000 N   0  0  0  0  0  0  0  0  0  0  0  0
   -3.0000   -2.5981    0.0000 C   0  0  0  0  0  0  0  0  0  0  0  0
   -3.7500   -3.8971    0.0000 C   0  0  0  0  0  0  0  0  0  0  0  0
   -3.0000   -5.1962    0.0000 N   0  0  0  0  0  0  0  0  0  0  0  0
   -1.5000   -5.1962    0.0000 C   0  0  0  0  0  0  0  0  0  0  0  0
   -0.7500   -3.8971    0.0000 C   0  0  0  0  0  0  0  0  0  0  0  0
   -1.5000    0.0000    0.0000 C   0  0  0  0  0  0  0  0  0  0  0  0
   -0.7500    1.2990    0.0000 C   0  0  0  0  0  0  0  0  0  0  0  0
    0.7500    1.2990    0.0000 C   0  0  0  0  0  0  0  0  0  0  0  0
    1.5000    2.5981    0.0000 N   0  0  0  0  0  0  0  0  0  0  0  0
    3.0000    2.5981    0.0000 C   0  0  0  0  0  0  0  0  0  0  0  0
    3.7500    1.2990    0.0000 N   0  0  0  0  0  0  0  0  0  0  0  0
    5.2500    1.2990    0.0000 C   0  0  0  0  0  0  0  0  0  0  0  0
    6.0000    2.5981    0.0000 C   0  0  0  0  0  0  0  0  0  0  0  0
    7.5000    2.5981    0.0000 C   0  0  0  0  0  0  0  0  0  0  0  0
    9.0000    2.5981    0.0000 F   0  0  0  0  0  0  0  0  0  0  0  0
    7.5000    1.0981    0.0000 F   0  0  0  0  0  0  0  0  0  0  0  0
    7.5000    4.0981    0.0000 F   0  0  0  0  0  0  0  0  0  0  0  0
    5.2500    3.8971    0.0000 C   0  0  0  0  0  0  0  0  0  0  0  0
    6.0000    5.1962    0.0000 N   0  0  0  0  0  0  0  0  0  0  0  0
    5.2500    6.4952    0.0000 C   0  0  0  0  0  0  0  0  0  0  0  0
    6.0000    7.7942    0.0000 C   0  0  0  0  0  0  0  0  0  0  0  0
    5.2500    9.0933    0.0000 C   0  0  0  0  0  0  0  0  0  0  0  0
    3.7500    9.0933    0.0000 C   0  0  0  0  0  0  0  0  0  0  0  0
    3.0000   10.3923    0.0000 N   0  0  0  0  0  0  0  0  0  0  0  0
    3.7500   11.6913    0.0000 C   0  0  0  0  0  0  0  0  0  0  0  0
    3.0000   12.9904    0.0000 C   0  0  0  0  0  0  0  0  0  0  0  0
    1.5000   12.9904    0.0000 N   0  0  0  0  0  0  0  0  0  0  0  0
    0.7500   11.6913    0.0000 C   0  0  0  0  0  0  0  0  0  0  0  0
    1.5000   10.3923    0.0000 C   0  0  0  0  0  0  0  0  0  0  0  0
    3.0000    7.7942    0.0000 C   0  0  0  0  0  0  0  0  0  0  0  0
    3.7500    6.4952    0.0000 C   0  0  0  0  0  0  0  0  0  0  0  0
    3.0000    5.1962    0.0000 O   0  0  0  0  0  0  0  0  0  0  0  0
    1.5000    5.1962    0.0000 C   0  0  0  0  0  0  0  0  0  0  0  0
    3.7500    3.8971    0.0000 N   0  0  0  0  0  0  0  0  0  0  0  0
  1  2  1  0
  2  3  1  0
  3  4  2  0
  4  5  1  0
  5  6  1  0
  6  7  1  0
  7  8  1  0
  8  9  1  0
  9 10  1  0
 10 11  1  0
  5 12  2  0
 12 13  1  0
 13 14  2  0
 14 15  1  0
 15 16  1  0
 16 17  2  0
 17 18  1  0
 18 19  2  0
 19 20  1  0
 20 21  1  0
 20 22  1  0
 20 23  1  0
 19 24  1  0
 24 25  1  0
 25 26  1  0
 26 27  2  0
 27 28  1  0
 28 29  2  0
 29 30  1  0
 30 31  1  0
 31 32  1  0
 32 33  1  0
 33 34  1  0
 34 35  1  0
 29 36  1  0
 36 37  2  0
 37 38  1  0
 38 39  1  0
 24 40  2  0
 14  3  1  0
 40 16  1  0
 11  6  1  0
 37 26  1  0
 35 30  1  0
M  END
>  <Compound_ID>  (206) 
CHEMBL3892892

>  <Molecule Name>  (206) 
nan

>  <Molecular Weight>  (206) 
558.61

>  <AlogP>  (206) 
3.82

>  <Smiles>  (206) 
COc1cc(N2CCNCC2)ccc1Nc1ncc(C(F)(F)F)c(Nc2ccc(N3CCNCC3)cc2OC)n1

>  <Standard Type>  (206) 
IC50

>  <Standard Relation>  (206) 
'='

>  <Standard Units>  (206) 
nM

>  <Standard Value>  (206) 
3.0

>  <Assay ChEMBL ID>  (206) 
CHEMBL3887132

>  <Assay Description>  (206) 
Homogeneous Time-resolved fluorescence (HTRF) Assay: In order to measure the inhibitory activity against ALK, a Grainer 96-well round type bottom plate was added with the compounds (2 μl) prepared in Examples 1 to 89, and mixed with ALK enzyme (1 ul) and a peptide substrate (2 μl) with biotin attached thereto for 15 minutes and cultured thereafter. Here, ATP solution (5 μl) was added thereto and kinase reaction was performed at room temperature for 30 minutes. XL 665 (5 μl), to which Streptavidin dissolved in ethylenediaminetetraacetic acid solution was attached, anti-phosphotyrosine antibody (5 μl), to which europium (Eu3+) was attached, were added to a reaction solution to stop the reaction, cultured for 1 hour, and analyzed using Homogeneous Time-resolved fluorescence (HTRF, Cisbio). The result was read by a Wallac Envision 2103 device at the wavelength range of 615/665 nm.

>  <BAO Format ID>  (206) 
BAO_0000357

>  <BAO Label>  (206) 
single protein format

>  <Assay Organism>  (206) 
Homo sapiens

>  <Target ChEMBL ID>  (206) 
CHEMBL4247

>  <Target Name>  (206) 
ALK tyrosine kinase receptor

>  <Target Organism>  (206) 
Homo sapiens

>  <Target Type>  (206) 
SINGLE PROTEIN

>  <Document ChEMBL ID>  (206) 
CHEMBL3886178

>  <Source Description>  (206) 
BindingDB Database

>  <Document Journal>  (206) 
nan

>  <Document Year>  (206) 
2015.0

>  <Active>  (206) 
1.0

>  <bits>  (206) 
<rdkit.DataStructs.cDataStructs.ExplicitBitVect object at 0x000002422C1BBAE0>

>  <Group>  (206) 
G2

$$$$

     RDKit          2D

 26 29  0  0  0  0  0  0  0  0999 V2000
    2.6491   -3.5623    0.0000 C   0  0  0  0  0  0  0  0  0  0  0  0
    1.5000   -2.5981    0.0000 C   0  0  0  0  0  0  0  0  0  0  0  0
    2.6491   -1.6339    0.0000 C   0  0  0  0  0  0  0  0  0  0  0  0
    0.7500   -1.2990    0.0000 C   0  0  0  0  0  0  0  0  0  0  0  0
    1.5000    0.0000    0.0000 C   0  0  0  0  0  0  0  0  0  0  0  0
    0.7500    1.2990    0.0000 C   0  0  0  0  0  0  0  0  0  0  0  0
    1.5000    2.5981    0.0000 O   0  0  0  0  0  0  0  0  0  0  0  0
    3.0000    2.5981    0.0000 C   0  0  0  0  0  0  0  0  0  0  0  0
    3.7500    3.8971    0.0000 C   0  0  0  0  0  0  0  0  0  0  0  0
    5.2500    3.8971    0.0000 N   0  0  0  0  0  0  0  0  0  0  0  0
   -0.7500    1.2990    0.0000 C   0  0  0  0  0  0  0  0  0  0  0  0
   -1.5000    0.0000    0.0000 C   0  0  0  0  0  0  0  0  0  0  0  0
   -0.7500   -1.2990    0.0000 C   0  0  0  0  0  0  0  0  0  0  0  0
   -1.5000   -2.5981    0.0000 C   0  0  0  0  0  0  0  0  0  0  0  0
   -3.0000   -2.5981    0.0000 O   0  0  0  0  0  0  0  0  0  0  0  0
   -0.7500   -3.8971    0.0000 C   0  0  0  0  0  0  0  0  0  0  0  0
    0.7500   -3.8971    0.0000 C   0  0  0  0  0  0  0  0  0  0  0  0
    1.2135   -5.3237    0.0000 N   0  0  0  0  0  0  0  0  0  0  0  0
    0.0000   -6.2054    0.0000 C   0  0  0  0  0  0  0  0  0  0  0  0
   -0.1568   -7.6972    0.0000 C   0  0  0  0  0  0  0  0  0  0  0  0
   -1.5271   -8.3073    0.0000 C   0  0  0  0  0  0  0  0  0  0  0  0
   -1.6839   -9.7990    0.0000 C   0  0  0  0  0  0  0  0  0  0  0  0
   -1.8407  -11.2908    0.0000 N   0  0  0  0  0  0  0  0  0  0  0  0
   -2.7406   -7.4256    0.0000 C   0  0  0  0  0  0  0  0  0  0  0  0
   -2.5838   -5.9338    0.0000 C   0  0  0  0  0  0  0  0  0  0  0  0
   -1.2135   -5.3237    0.0000 C   0  0  0  0  0  0  0  0  0  0  0  0
  1  2  1  0
  2  3  1  0
  2  4  1  0
  4  5  2  0
  5  6  1  0
  6  7  1  0
  7  8  1  0
  8  9  1  0
  9 10  1  0
  6 11  2  0
 11 12  1  0
 12 13  2  0
 13 14  1  0
 14 15  2  0
 14 16  1  0
 16 17  2  0
 17 18  1  0
 18 19  1  0
 19 20  2  0
 20 21  1  0
 21 22  1  0
 22 23  3  0
 21 24  2  0
 24 25  1  0
 25 26  2  0
 17  2  1  0
 26 19  1  0
 13  4  1  0
 26 16  1  0
M  END
>  <Compound_ID>  (207) 
CHEMBL3898277

>  <Molecule Name>  (207) 
nan

>  <Molecular Weight>  (207) 
345.4

>  <AlogP>  (207) 
3.25

>  <Smiles>  (207) 
CC1(C)c2cc(OCCN)ccc2C(=O)c2c1[nH]c1cc(C#N)ccc21

>  <Standard Type>  (207) 
IC50

>  <Standard Relation>  (207) 
'='

>  <Standard Units>  (207) 
nM

>  <Standard Value>  (207) 
8.01

>  <Assay ChEMBL ID>  (207) 
CHEMBL3887074

>  <Assay Description>  (207) 
Inhibition Assay: ALK-inhibiting activity was measured by following an activity of inhibiting phosphorylation by biotinylated peptide (EGPWLEEEEEAYGWMDF). For the detection of phosphorylation of the biotinylated peptide, time-resolved fluorescence measurement was performed using an anti-phosphorylated tyrosine antibody labeled with europium cryptate and streptavidin conjugated to XL665, i.e., an allophycocyanin derivative.

>  <BAO Format ID>  (207) 
BAO_0000357

>  <BAO Label>  (207) 
single protein format

>  <Assay Organism>  (207) 
Homo sapiens

>  <Target ChEMBL ID>  (207) 
CHEMBL4247

>  <Target Name>  (207) 
ALK tyrosine kinase receptor

>  <Target Organism>  (207) 
Homo sapiens

>  <Target Type>  (207) 
SINGLE PROTEIN

>  <Document ChEMBL ID>  (207) 
CHEMBL3886150

>  <Source Description>  (207) 
BindingDB Database

>  <Document Journal>  (207) 
nan

>  <Document Year>  (207) 
2015.0

>  <Active>  (207) 
1.0

>  <bits>  (207) 
<rdkit.DataStructs.cDataStructs.ExplicitBitVect object at 0x000002422F18AB20>

>  <Group>  (207) 
G2

$$$$

     RDKit          2D

 38 44  0  0  0  0  0  0  0  0999 V2000
    9.9485    0.1542    0.0000 N   0  0  0  0  0  0  0  0  0  0  0  0
    8.5782   -0.4559    0.0000 C   0  0  0  0  0  0  0  0  0  0  0  0
    7.2079   -1.0660    0.0000 C   0  0  0  0  0  0  0  0  0  0  0  0
    7.0511   -2.5578    0.0000 C   0  0  0  0  0  0  0  0  0  0  0  0
    5.6807   -3.1679    0.0000 C   0  0  0  0  0  0  0  0  0  0  0  0
    4.4672   -2.2862    0.0000 C   0  0  0  0  0  0  0  0  0  0  0  0
    3.0000   -2.5981    0.0000 C   0  0  0  0  0  0  0  0  0  0  0  0
    2.2500   -1.2990    0.0000 C   0  0  0  0  0  0  0  0  0  0  0  0
    3.2537   -0.1843    0.0000 N   0  0  0  0  0  0  0  0  0  0  0  0
    4.6240   -0.7944    0.0000 C   0  0  0  0  0  0  0  0  0  0  0  0
    5.9943   -0.1843    0.0000 C   0  0  0  0  0  0  0  0  0  0  0  0
    0.7500   -1.2990    0.0000 C   0  0  0  0  0  0  0  0  0  0  0  0
    1.5000    0.0000    0.0000 C   0  0  0  0  0  0  0  0  0  0  0  0
    0.7500    1.2990    0.0000 C   0  0  0  0  0  0  0  0  0  0  0  0
   -0.7500    1.2990    0.0000 O   0  0  0  0  0  0  0  0  0  0  0  0
   -1.5000    0.0000    0.0000 C   0  0  0  0  0  0  0  0  0  0  0  0
   -0.7500   -1.2990    0.0000 C   0  0  0  0  0  0  0  0  0  0  0  0
   -0.0000   -2.5981    0.0000 C   0  0  0  0  0  0  0  0  0  0  0  0
   -1.5000   -2.5981    0.0000 C   0  0  0  0  0  0  0  0  0  0  0  0
   -2.2500   -3.8971    0.0000 C   0  0  0  0  0  0  0  0  0  0  0  0
   -3.7500   -3.8971    0.0000 N   0  0  0  0  0  0  0  0  0  0  0  0
   -4.5000   -2.5981    0.0000 C   0  0  0  0  0  0  0  0  0  0  0  0
   -6.0000   -2.5981    0.0000 C   0  0  0  0  0  0  0  0  0  0  0  0
   -6.7500   -3.8971    0.0000 C   0  0  0  0  0  0  0  0  0  0  0  0
   -8.2500   -3.8971    0.0000 N   0  0  0  0  0  0  0  0  0  0  0  0
   -9.1317   -5.1106    0.0000 C   0  0  0  0  0  0  0  0  0  0  0  0
  -10.5583   -4.6471    0.0000 C   0  0  0  0  0  0  0  0  0  0  0  0
  -10.5583   -3.1471    0.0000 C   0  0  0  0  0  0  0  0  0  0  0  0
   -9.1317   -2.6836    0.0000 C   0  0  0  0  0  0  0  0  0  0  0  0
   -6.0000   -5.1962    0.0000 C   0  0  0  0  0  0  0  0  0  0  0  0
   -4.5000   -5.1962    0.0000 C   0  0  0  0  0  0  0  0  0  0  0  0
   -1.5000   -5.1962    0.0000 C   0  0  0  0  0  0  0  0  0  0  0  0
   -2.2500   -6.4952    0.0000 C   0  0  0  0  0  0  0  0  0  0  0  0
   -3.0000   -7.7942    0.0000 N   0  0  0  0  0  0  0  0  0  0  0  0
   -0.0000   -5.1962    0.0000 C   0  0  0  0  0  0  0  0  0  0  0  0
    0.7500   -3.8971    0.0000 C   0  0  0  0  0  0  0  0  0  0  0  0
    2.2500   -3.8971    0.0000 C   0  0  0  0  0  0  0  0  0  0  0  0
    3.0000   -5.1962    0.0000 O   0  0  0  0  0  0  0  0  0  0  0  0
  1  2  3  0
  2  3  1  0
  3  4  2  0
  4  5  1  0
  5  6  2  0
  6  7  1  0
  7  8  2  0
  8  9  1  0
  9 10  1  0
 10 11  2  0
  8 12  1  0
 12 13  1  0
 13 14  1  0
 14 15  1  0
 15 16  1  0
 16 17  1  0
 12 18  1  0
 18 19  2  0
 19 20  1  0
 20 21  1  0
 21 22  1  0
 22 23  1  0
 23 24  1  0
 24 25  1  0
 25 26  1  0
 26 27  1  0
 27 28  1  0
 28 29  1  0
 24 30  1  0
 30 31  1  0
 20 32  2  0
 32 33  1  0
 33 34  3  0
 32 35  1  0
 35 36  2  0
 36 37  1  0
 37 38  2  0
 11  3  1  0
 17 12  1  0
 36 18  1  0
 10  6  1  0
 31 21  1  0
 37  7  1  0
 29 25  1  0
M  END
>  <Compound_ID>  (208) 
CHEMBL3921449

>  <Molecule Name>  (208) 
nan

>  <Molecular Weight>  (208) 
505.62

>  <AlogP>  (208) 
4.62

>  <Smiles>  (208) 
N#Cc1ccc2c3c([nH]c2c1)C1(CCOCC1)c1cc(N2CCC(N4CCCC4)CC2)c(C#N)cc1C3=O

>  <Standard Type>  (208) 
IC50

>  <Standard Relation>  (208) 
'='

>  <Standard Units>  (208) 
nM

>  <Standard Value>  (208) 
0.86

>  <Assay ChEMBL ID>  (208) 
CHEMBL3887074

>  <Assay Description>  (208) 
Inhibition Assay: ALK-inhibiting activity was measured by following an activity of inhibiting phosphorylation by biotinylated peptide (EGPWLEEEEEAYGWMDF). For the detection of phosphorylation of the biotinylated peptide, time-resolved fluorescence measurement was performed using an anti-phosphorylated tyrosine antibody labeled with europium cryptate and streptavidin conjugated to XL665, i.e., an allophycocyanin derivative.

>  <BAO Format ID>  (208) 
BAO_0000357

>  <BAO Label>  (208) 
single protein format

>  <Assay Organism>  (208) 
Homo sapiens

>  <Target ChEMBL ID>  (208) 
CHEMBL4247

>  <Target Name>  (208) 
ALK tyrosine kinase receptor

>  <Target Organism>  (208) 
Homo sapiens

>  <Target Type>  (208) 
SINGLE PROTEIN

>  <Document ChEMBL ID>  (208) 
CHEMBL3886150

>  <Source Description>  (208) 
BindingDB Database

>  <Document Journal>  (208) 
nan

>  <Document Year>  (208) 
2015.0

>  <Active>  (208) 
1.0

>  <bits>  (208) 
<rdkit.DataStructs.cDataStructs.ExplicitBitVect object at 0x000002422F18B8B0>

>  <Group>  (208) 
G2

$$$$

     RDKit          2D

 28 31  0  0  0  0  0  0  0  0999 V2000
    7.5000   -2.5981    0.0000 C   0  0  0  0  0  0  0  0  0  0  0  0
    6.0000   -2.5981    0.0000 S   0  0  0  0  0  3  0  0  0  0  0  0
    5.2500   -3.8971    0.0000 O   0  0  0  0  0  1  0  0  0  0  0  0
    5.2500   -1.2990    0.0000 C   0  0  0  0  0  0  0  0  0  0  0  0
    3.7500   -1.2990    0.0000 C   0  0  0  0  0  0  0  0  0  0  0  0
    3.0000    0.0000    0.0000 O   0  0  0  0  0  0  0  0  0  0  0  0
    1.5000    0.0000    0.0000 C   0  0  0  0  0  0  0  0  0  0  0  0
    0.7500   -1.2990    0.0000 C   0  0  0  0  0  0  0  0  0  0  0  0
   -0.7500   -1.2990    0.0000 C   0  0  0  0  0  0  0  0  0  0  0  0
   -1.5000    0.0000    0.0000 C   0  0  0  0  0  0  0  0  0  0  0  0
   -0.7500    1.2990    0.0000 C   0  0  0  0  0  0  0  0  0  0  0  0
    0.7500    1.2990    0.0000 C   0  0  0  0  0  0  0  0  0  0  0  0
   -1.5000    2.5981    0.0000 C   0  0  0  0  0  0  0  0  0  0  0  0
   -1.7605    4.0753    0.0000 C   0  0  0  0  0  0  0  0  0  0  0  0
   -0.0905    3.1111    0.0000 C   0  0  0  0  0  0  0  0  0  0  0  0
   -3.0000    2.5981    0.0000 C   0  0  0  0  0  0  0  0  0  0  0  0
   -4.0037    3.7128    0.0000 N   0  0  0  0  0  0  0  0  0  0  0  0
   -5.3740    3.1027    0.0000 C   0  0  0  0  0  0  0  0  0  0  0  0
   -6.7443    3.7128    0.0000 C   0  0  0  0  0  0  0  0  0  0  0  0
   -7.9579    2.8311    0.0000 C   0  0  0  0  0  0  0  0  0  0  0  0
   -9.3282    3.4412    0.0000 C   0  0  0  0  0  0  0  0  0  0  0  0
  -10.6985    4.0513    0.0000 N   0  0  0  0  0  0  0  0  0  0  0  0
   -7.8011    1.3393    0.0000 C   0  0  0  0  0  0  0  0  0  0  0  0
   -6.4307    0.7292    0.0000 C   0  0  0  0  0  0  0  0  0  0  0  0
   -5.2172    1.6109    0.0000 C   0  0  0  0  0  0  0  0  0  0  0  0
   -3.7500    1.2990    0.0000 C   0  0  0  0  0  0  0  0  0  0  0  0
   -3.0000    0.0000    0.0000 C   0  0  0  0  0  0  0  0  0  0  0  0
   -3.7500   -1.2990    0.0000 O   0  0  0  0  0  0  0  0  0  0  0  0
  1  2  1  0
  2  3  1  0
  2  4  1  0
  4  5  1  0
  5  6  1  0
  6  7  1  0
  7  8  2  0
  8  9  1  0
  9 10  2  0
 10 11  1  0
 11 12  2  0
 11 13  1  0
 13 14  1  0
 13 15  1  0
 13 16  1  0
 16 17  1  0
 17 18  1  0
 18 19  2  0
 19 20  1  0
 20 21  1  0
 21 22  3  0
 20 23  2  0
 23 24  1  0
 24 25  2  0
 25 26  1  0
 26 27  1  0
 27 28  2  0
 12  7  1  0
 26 16  2  0
 27 10  1  0
 25 18  1  0
M  CHG  2   2   1   3  -1
M  END
>  <Compound_ID>  (209) 
CHEMBL3929912

>  <Molecule Name>  (209) 
nan

>  <Molecular Weight>  (209) 
392.48

>  <AlogP>  (209) 
3.67

>  <Smiles>  (209) 
C[S+]([O-])CCOc1ccc2c(c1)C(C)(C)c1[nH]c3cc(C#N)ccc3c1C2=O

>  <Standard Type>  (209) 
IC50

>  <Standard Relation>  (209) 
'='

>  <Standard Units>  (209) 
nM

>  <Standard Value>  (209) 
10.25

>  <Assay ChEMBL ID>  (209) 
CHEMBL3887074

>  <Assay Description>  (209) 
Inhibition Assay: ALK-inhibiting activity was measured by following an activity of inhibiting phosphorylation by biotinylated peptide (EGPWLEEEEEAYGWMDF). For the detection of phosphorylation of the biotinylated peptide, time-resolved fluorescence measurement was performed using an anti-phosphorylated tyrosine antibody labeled with europium cryptate and streptavidin conjugated to XL665, i.e., an allophycocyanin derivative.

>  <BAO Format ID>  (209) 
BAO_0000357

>  <BAO Label>  (209) 
single protein format

>  <Assay Organism>  (209) 
Homo sapiens

>  <Target ChEMBL ID>  (209) 
CHEMBL4247

>  <Target Name>  (209) 
ALK tyrosine kinase receptor

>  <Target Organism>  (209) 
Homo sapiens

>  <Target Type>  (209) 
SINGLE PROTEIN

>  <Document ChEMBL ID>  (209) 
CHEMBL3886150

>  <Source Description>  (209) 
BindingDB Database

>  <Document Journal>  (209) 
nan

>  <Document Year>  (209) 
2015.0

>  <Active>  (209) 
1.0

>  <bits>  (209) 
<rdkit.DataStructs.cDataStructs.ExplicitBitVect object at 0x000002422F18B990>

>  <Group>  (209) 
G2

$$$$

     RDKit          2D

 37 41  0  0  0  0  0  0  0  0999 V2000
   -6.2940    7.2357    0.0000 C   0  0  0  0  0  0  0  0  0  0  0  0
   -5.1793    6.2320    0.0000 S   0  0  0  0  0  3  0  0  0  0  0  0
   -5.4912    4.7648    0.0000 O   0  0  0  0  0  1  0  0  0  0  0  0
   -3.7527    6.6955    0.0000 C   0  0  0  0  0  0  0  0  0  0  0  0
   -3.4408    8.1628    0.0000 C   0  0  0  0  0  0  0  0  0  0  0  0
   -2.0143    8.6263    0.0000 C   0  0  0  0  0  0  0  0  0  0  0  0
   -1.7024   10.0935    0.0000 N   0  0  0  0  0  0  0  0  0  0  0  0
   -0.2758   10.5570    0.0000 C   0  0  0  0  0  0  0  0  0  0  0  0
    0.0361   12.0242    0.0000 C   0  0  0  0  0  0  0  0  0  0  0  0
   -1.0786   13.0279    0.0000 N   0  0  0  0  0  0  0  0  0  0  0  0
   -2.5052   12.5644    0.0000 C   0  0  0  0  0  0  0  0  0  0  0  0
   -2.8171   11.0972    0.0000 C   0  0  0  0  0  0  0  0  0  0  0  0
   -0.8995    7.6226    0.0000 C   0  0  0  0  0  0  0  0  0  0  0  0
   -1.2114    6.1554    0.0000 C   0  0  0  0  0  0  0  0  0  0  0  0
   -2.6380    5.6918    0.0000 C   0  0  0  0  0  0  0  0  0  0  0  0
   -2.9499    4.2246    0.0000 N   0  0  0  0  0  0  0  0  0  0  0  0
   -1.8351    3.2209    0.0000 C   0  0  0  0  0  0  0  0  0  0  0  0
   -0.4086    3.6844    0.0000 N   0  0  0  0  0  0  0  0  0  0  0  0
    0.7062    2.6807    0.0000 C   0  0  0  0  0  0  0  0  0  0  0  0
    2.1328    3.1443    0.0000 C   0  0  0  0  0  0  0  0  0  0  0  0
    2.4446    4.6115    0.0000 C   0  0  0  0  0  0  0  0  0  0  0  0
    3.8712    5.0750    0.0000 C   0  0  0  0  0  0  0  0  0  0  0  0
    4.9859    4.0713    0.0000 Cl  0  0  0  0  0  0  0  0  0  0  0  0
    4.1831    6.5422    0.0000 C   0  0  0  0  0  0  0  0  0  0  0  0
    3.0684    7.5459    0.0000 C   0  0  0  0  0  0  0  0  0  0  0  0
    1.6418    7.0824    0.0000 C   0  0  0  0  0  0  0  0  0  0  0  0
    1.3299    5.6152    0.0000 C   0  0  0  0  0  0  0  0  0  0  0  0
   -0.0967    5.1517    0.0000 Cl  0  0  0  0  0  0  0  0  0  0  0  0
    0.3943    1.2135    0.0000 N   0  0  0  0  0  0  0  0  0  0  0  0
    1.2760    0.0000    0.0000 C   0  0  0  0  0  0  0  0  0  0  0  0
    0.3943   -1.2135    0.0000 C   0  0  0  0  0  0  0  0  0  0  0  0
   -1.0323   -0.7500    0.0000 N   0  0  0  0  0  0  0  0  0  0  0  0
   -1.0323    0.7500    0.0000 C   0  0  0  0  0  0  0  0  0  0  0  0
   -2.1470    1.7537    0.0000 C   0  0  0  0  0  0  0  0  0  0  0  0
   -3.5736    1.2902    0.0000 C   0  0  0  0  0  0  0  0  0  0  0  0
   -4.6883    2.2939    0.0000 N   0  0  0  0  0  0  0  0  0  0  0  0
   -3.8855   -0.1771    0.0000 O   0  0  0  0  0  0  0  0  0  0  0  0
  1  2  1  0
  2  3  1  0
  2  4  1  0
  4  5  2  0
  5  6  1  0
  6  7  1  0
  7  8  1  0
  8  9  1  0
  9 10  1  0
 10 11  1  0
 11 12  1  0
  6 13  2  0
 13 14  1  0
 14 15  2  0
 15 16  1  0
 16 17  1  0
 17 18  1  0
 18 19  2  0
 19 20  1  0
 20 21  1  0
 21 22  2  0
 22 23  1  0
 22 24  1  0
 24 25  2  0
 25 26  1  0
 26 27  2  0
 27 28  1  0
 19 29  1  0
 29 30  1  0
 30 31  2  0
 31 32  1  0
 32 33  2  0
 33 34  1  0
 34 35  1  0
 35 36  1  0
 35 37  2  0
 15  4  1  0
 34 17  2  0
 12  7  1  0
 27 21  1  0
 33 29  1  0
M  CHG  2   2   1   3  -1
M  END
>  <Compound_ID>  (210) 
CHEMBL3953217

>  <Molecule Name>  (210) 
nan

>  <Molecular Weight>  (210) 
558.5

>  <AlogP>  (210) 
3.62

>  <Smiles>  (210) 
C[S+]([O-])c1cc(N2CCNCC2)ccc1Nc1nc(Cc2c(Cl)cccc2Cl)n2ccnc2c1C(N)=O

>  <Standard Type>  (210) 
Ki

>  <Standard Relation>  (210) 
'='

>  <Standard Units>  (210) 
nM

>  <Standard Value>  (210) 
65.0

>  <Assay ChEMBL ID>  (210) 
CHEMBL3887723

>  <Assay Description>  (210) 
Enzyme Inhibition Assay: ALK kinase assays were conducted with the indicated final concentrations unless otherwise specified. In 384 well black plates (Axygen), 8 ul of compound (2% DMSO) was incubated with 8 ul Lck-peptide substrate (0.5 uM, biotin-Ahx-GAEEEIYAAFFA-COOH) and 8 ul of a mixture of ALK (3 nM, Millipore) and ATP (50 uM) in reaction buffer (50 mM Hepes, pH 7.4; 10 mM MgCl2; 2 mM MnCl2; 0.1 mM sodium orthovanadate; 0.01% BSA and 1 mM DTT (added fresh before assay) for 1 h at room temperature. Reactions were then quenched by the addition of 30 ul quench solution (streptavidin-allophycocyanin and Europium-cryptate PT66 monoclonal antibody in 40 mM Hepes, pH 7.4; 480 mM KF; 66 mM EDTA; 0.01% Tween-20; and 0.1% BSA) at room temperature. Plates were read 1 h after quenching on an Envision Multilaber Reader and IC50 values were calculated using a sigmoidal fit of the concentration/inhibition response curves. These values were converted to apparent Ki values.

>  <BAO Format ID>  (210) 
BAO_0000357

>  <BAO Label>  (210) 
single protein format

>  <Assay Organism>  (210) 
Homo sapiens

>  <Target ChEMBL ID>  (210) 
CHEMBL4247

>  <Target Name>  (210) 
ALK tyrosine kinase receptor

>  <Target Organism>  (210) 
Homo sapiens

>  <Target Type>  (210) 
SINGLE PROTEIN

>  <Document ChEMBL ID>  (210) 
CHEMBL3886424

>  <Source Description>  (210) 
BindingDB Database

>  <Document Journal>  (210) 
nan

>  <Document Year>  (210) 
2015.0

>  <Active>  (210) 
1.0

>  <bits>  (210) 
<rdkit.DataStructs.cDataStructs.ExplicitBitVect object at 0x000002422F18BA70>

>  <Group>  (210) 
G2

$$$$

     RDKit          2D

 34 38  0  0  0  0  0  0  0  0999 V2000
    2.6491   -3.5623    0.0000 C   0  0  0  0  0  0  0  0  0  0  0  0
    1.5000   -2.5981    0.0000 C   0  0  0  0  0  0  0  0  0  0  0  0
    2.6491   -1.6339    0.0000 C   0  0  0  0  0  0  0  0  0  0  0  0
    0.7500   -1.2990    0.0000 C   0  0  0  0  0  0  0  0  0  0  0  0
    1.5000    0.0000    0.0000 C   0  0  0  0  0  0  0  0  0  0  0  0
    0.7500    1.2990    0.0000 C   0  0  0  0  0  0  0  0  0  0  0  0
    1.5000    2.5981    0.0000 C   0  0  0  0  0  0  0  0  0  0  0  0
    0.7500    3.8971    0.0000 O   0  0  0  0  0  0  0  0  0  0  0  0
    3.0000    2.5981    0.0000 N   0  0  0  0  0  0  0  0  0  0  0  0
    3.7500    1.2990    0.0000 C   0  0  0  0  0  0  0  0  0  0  0  0
    5.2500    1.2990    0.0000 C   0  0  0  0  0  0  0  0  0  0  0  0
    6.0000    2.5981    0.0000 N   0  0  0  0  0  0  0  0  0  0  0  0
    7.5000    2.5981    0.0000 S   0  0  0  0  0  0  0  0  0  0  0  0
    9.0000    2.5981    0.0000 C   0  0  0  0  0  0  0  0  0  0  0  0
    7.5000    4.0981    0.0000 O   0  0  0  0  0  0  0  0  0  0  0  0
    7.5000    1.0981    0.0000 O   0  0  0  0  0  0  0  0  0  0  0  0
    5.2500    3.8971    0.0000 C   0  0  0  0  0  0  0  0  0  0  0  0
    3.7500    3.8971    0.0000 C   0  0  0  0  0  0  0  0  0  0  0  0
   -0.7500    1.2990    0.0000 C   0  0  0  0  0  0  0  0  0  0  0  0
   -1.5000    0.0000    0.0000 C   0  0  0  0  0  0  0  0  0  0  0  0
   -0.7500   -1.2990    0.0000 C   0  0  0  0  0  0  0  0  0  0  0  0
   -1.5000   -2.5981    0.0000 C   0  0  0  0  0  0  0  0  0  0  0  0
   -3.0000   -2.5981    0.0000 O   0  0  0  0  0  0  0  0  0  0  0  0
   -0.7500   -3.8971    0.0000 C   0  0  0  0  0  0  0  0  0  0  0  0
    0.7500   -3.8971    0.0000 C   0  0  0  0  0  0  0  0  0  0  0  0
    1.2135   -5.3237    0.0000 N   0  0  0  0  0  0  0  0  0  0  0  0
    0.0000   -6.2054    0.0000 C   0  0  0  0  0  0  0  0  0  0  0  0
   -0.1568   -7.6972    0.0000 C   0  0  0  0  0  0  0  0  0  0  0  0
   -1.5271   -8.3073    0.0000 C   0  0  0  0  0  0  0  0  0  0  0  0
   -1.6839   -9.7990    0.0000 C   0  0  0  0  0  0  0  0  0  0  0  0
   -1.8407  -11.2908    0.0000 N   0  0  0  0  0  0  0  0  0  0  0  0
   -2.7406   -7.4256    0.0000 C   0  0  0  0  0  0  0  0  0  0  0  0
   -2.5838   -5.9338    0.0000 C   0  0  0  0  0  0  0  0  0  0  0  0
   -1.2135   -5.3237    0.0000 C   0  0  0  0  0  0  0  0  0  0  0  0
  1  2  1  0
  2  3  1  0
  2  4  1  0
  4  5  2  0
  5  6  1  0
  6  7  1  0
  7  8  2  0
  7  9  1  0
  9 10  1  0
 10 11  1  0
 11 12  1  0
 12 13  1  0
 13 14  1  0
 13 15  2  0
 13 16  2  0
 12 17  1  0
 17 18  1  0
  6 19  2  0
 19 20  1  0
 20 21  2  0
 21 22  1  0
 22 23  2  0
 22 24  1  0
 24 25  2  0
 25 26  1  0
 26 27  1  0
 27 28  2  0
 28 29  1  0
 29 30  1  0
 30 31  3  0
 29 32  2  0
 32 33  1  0
 33 34  2  0
 25  2  1  0
 34 27  1  0
 21  4  1  0
 34 24  1  0
 18  9  1  0
M  END
>  <Compound_ID>  (211) 
CHEMBL3972539

>  <Molecule Name>  (211) 
nan

>  <Molecular Weight>  (211) 
476.56

>  <AlogP>  (211) 
2.63

>  <Smiles>  (211) 
CC1(C)c2cc(C(=O)N3CCN(S(C)(=O)=O)CC3)ccc2C(=O)c2c1[nH]c1cc(C#N)ccc21

>  <Standard Type>  (211) 
IC50

>  <Standard Relation>  (211) 
'='

>  <Standard Units>  (211) 
nM

>  <Standard Value>  (211) 
27.32

>  <Assay ChEMBL ID>  (211) 
CHEMBL3887074

>  <Assay Description>  (211) 
Inhibition Assay: ALK-inhibiting activity was measured by following an activity of inhibiting phosphorylation by biotinylated peptide (EGPWLEEEEEAYGWMDF). For the detection of phosphorylation of the biotinylated peptide, time-resolved fluorescence measurement was performed using an anti-phosphorylated tyrosine antibody labeled with europium cryptate and streptavidin conjugated to XL665, i.e., an allophycocyanin derivative.

>  <BAO Format ID>  (211) 
BAO_0000357

>  <BAO Label>  (211) 
single protein format

>  <Assay Organism>  (211) 
Homo sapiens

>  <Target ChEMBL ID>  (211) 
CHEMBL4247

>  <Target Name>  (211) 
ALK tyrosine kinase receptor

>  <Target Organism>  (211) 
Homo sapiens

>  <Target Type>  (211) 
SINGLE PROTEIN

>  <Document ChEMBL ID>  (211) 
CHEMBL3886150

>  <Source Description>  (211) 
BindingDB Database

>  <Document Journal>  (211) 
nan

>  <Document Year>  (211) 
2015.0

>  <Active>  (211) 
1.0

>  <bits>  (211) 
<rdkit.DataStructs.cDataStructs.ExplicitBitVect object at 0x000002422F1885F0>

>  <Group>  (211) 
G2

$$$$

     RDKit          2D

 38 42  0  0  0  0  0  0  0  0999 V2000
   -6.2940    7.2357    0.0000 C   0  0  0  0  0  0  0  0  0  0  0  0
   -5.1793    6.2320    0.0000 O   0  0  0  0  0  0  0  0  0  0  0  0
   -3.7527    6.6955    0.0000 C   0  0  0  0  0  0  0  0  0  0  0  0
   -3.4408    8.1628    0.0000 C   0  0  0  0  0  0  0  0  0  0  0  0
   -2.0143    8.6263    0.0000 C   0  0  0  0  0  0  0  0  0  0  0  0
   -1.7024   10.0935    0.0000 C   0  0  0  0  0  0  0  0  0  0  0  0
   -2.8171   11.0972    0.0000 O   0  0  0  0  0  0  0  0  0  0  0  0
   -0.2758   10.5570    0.0000 N   0  0  0  0  0  0  0  0  0  0  0  0
    0.8389    9.5533    0.0000 C   0  0  0  0  0  0  0  0  0  0  0  0
    2.2655   10.0169    0.0000 C   0  0  0  0  0  0  0  0  0  0  0  0
    2.5774   11.4841    0.0000 N   0  0  0  0  0  0  0  0  0  0  0  0
    1.4627   12.4878    0.0000 C   0  0  0  0  0  0  0  0  0  0  0  0
    0.0361   12.0242    0.0000 C   0  0  0  0  0  0  0  0  0  0  0  0
   -0.8995    7.6226    0.0000 C   0  0  0  0  0  0  0  0  0  0  0  0
   -1.2114    6.1554    0.0000 C   0  0  0  0  0  0  0  0  0  0  0  0
   -2.6380    5.6918    0.0000 C   0  0  0  0  0  0  0  0  0  0  0  0
   -2.9499    4.2246    0.0000 N   0  0  0  0  0  0  0  0  0  0  0  0
   -1.8351    3.2209    0.0000 C   0  0  0  0  0  0  0  0  0  0  0  0
   -0.4086    3.6844    0.0000 N   0  0  0  0  0  0  0  0  0  0  0  0
    0.7062    2.6807    0.0000 C   0  0  0  0  0  0  0  0  0  0  0  0
    2.1328    3.1443    0.0000 C   0  0  0  0  0  0  0  0  0  0  0  0
    2.4446    4.6115    0.0000 C   0  0  0  0  0  0  0  0  0  0  0  0
    3.8712    5.0750    0.0000 C   0  0  0  0  0  0  0  0  0  0  0  0
    4.9859    4.0713    0.0000 Cl  0  0  0  0  0  0  0  0  0  0  0  0
    4.1831    6.5422    0.0000 C   0  0  0  0  0  0  0  0  0  0  0  0
    3.0684    7.5459    0.0000 C   0  0  0  0  0  0  0  0  0  0  0  0
    1.6418    7.0824    0.0000 C   0  0  0  0  0  0  0  0  0  0  0  0
    1.3299    5.6152    0.0000 C   0  0  0  0  0  0  0  0  0  0  0  0
   -0.0967    5.1517    0.0000 Cl  0  0  0  0  0  0  0  0  0  0  0  0
    0.3943    1.2135    0.0000 C   0  0  0  0  0  0  0  0  0  0  0  0
    1.2760    0.0000    0.0000 N   0  0  0  0  0  0  0  0  0  0  0  0
    0.3943   -1.2135    0.0000 C   0  0  0  0  0  0  0  0  0  0  0  0
   -1.0323   -0.7500    0.0000 N   0  0  0  0  0  0  0  0  0  0  0  0
   -1.0323    0.7500    0.0000 C   0  0  0  0  0  0  0  0  0  0  0  0
   -2.1470    1.7537    0.0000 C   0  0  0  0  0  0  0  0  0  0  0  0
   -3.5736    1.2902    0.0000 C   0  0  0  0  0  0  0  0  0  0  0  0
   -4.6883    2.2939    0.0000 N   0  0  0  0  0  0  0  0  0  0  0  0
   -3.8855   -0.1771    0.0000 O   0  0  0  0  0  0  0  0  0  0  0  0
  1  2  1  0
  2  3  1  0
  3  4  2  0
  4  5  1  0
  5  6  1  0
  6  7  2  0
  6  8  1  0
  8  9  1  0
  9 10  1  0
 10 11  1  0
 11 12  1  0
 12 13  1  0
  5 14  2  0
 14 15  1  0
 15 16  2  0
 16 17  1  0
 17 18  1  0
 18 19  2  0
 19 20  1  0
 20 21  1  0
 21 22  1  0
 22 23  2  0
 23 24  1  0
 23 25  1  0
 25 26  2  0
 26 27  1  0
 27 28  2  0
 28 29  1  0
 20 30  2  0
 30 31  1  0
 31 32  2  0
 32 33  1  0
 33 34  1  0
 34 35  2  0
 35 36  1  0
 36 37  1  0
 36 38  2  0
 16  3  1  0
 35 18  1  0
 13  8  1  0
 28 22  1  0
 34 30  1  0
M  END
>  <Compound_ID>  (212) 
CHEMBL3935393

>  <Molecule Name>  (212) 
nan

>  <Molecular Weight>  (212) 
554.44

>  <AlogP>  (212) 
3.75

>  <Smiles>  (212) 
COc1cc(C(=O)N2CCNCC2)ccc1Nc1nc(Cc2c(Cl)cccc2Cl)c2nc[nH]c2c1C(N)=O

>  <Standard Type>  (212) 
Ki

>  <Standard Relation>  (212) 
'='

>  <Standard Units>  (212) 
nM

>  <Standard Value>  (212) 
2.0

>  <Assay ChEMBL ID>  (212) 
CHEMBL3887723

>  <Assay Description>  (212) 
Enzyme Inhibition Assay: ALK kinase assays were conducted with the indicated final concentrations unless otherwise specified. In 384 well black plates (Axygen), 8 ul of compound (2% DMSO) was incubated with 8 ul Lck-peptide substrate (0.5 uM, biotin-Ahx-GAEEEIYAAFFA-COOH) and 8 ul of a mixture of ALK (3 nM, Millipore) and ATP (50 uM) in reaction buffer (50 mM Hepes, pH 7.4; 10 mM MgCl2; 2 mM MnCl2; 0.1 mM sodium orthovanadate; 0.01% BSA and 1 mM DTT (added fresh before assay) for 1 h at room temperature. Reactions were then quenched by the addition of 30 ul quench solution (streptavidin-allophycocyanin and Europium-cryptate PT66 monoclonal antibody in 40 mM Hepes, pH 7.4; 480 mM KF; 66 mM EDTA; 0.01% Tween-20; and 0.1% BSA) at room temperature. Plates were read 1 h after quenching on an Envision Multilaber Reader and IC50 values were calculated using a sigmoidal fit of the concentration/inhibition response curves. These values were converted to apparent Ki values.

>  <BAO Format ID>  (212) 
BAO_0000357

>  <BAO Label>  (212) 
single protein format

>  <Assay Organism>  (212) 
Homo sapiens

>  <Target ChEMBL ID>  (212) 
CHEMBL4247

>  <Target Name>  (212) 
ALK tyrosine kinase receptor

>  <Target Organism>  (212) 
Homo sapiens

>  <Target Type>  (212) 
SINGLE PROTEIN

>  <Document ChEMBL ID>  (212) 
CHEMBL3886424

>  <Source Description>  (212) 
BindingDB Database

>  <Document Journal>  (212) 
nan

>  <Document Year>  (212) 
2015.0

>  <Active>  (212) 
1.0

>  <bits>  (212) 
<rdkit.DataStructs.cDataStructs.ExplicitBitVect object at 0x000002422F18A420>

>  <Group>  (212) 
G2

$$$$

     RDKit          2D

 25 28  0  0  0  0  0  0  0  0999 V2000
   -6.8516   -6.6578    0.0000 C   0  0  0  0  0  0  0  0  0  0  0  0
   -5.6381   -7.5395    0.0000 O   0  0  0  0  0  0  0  0  0  0  0  0
   -4.2677   -6.9294    0.0000 C   0  0  0  0  0  0  0  0  0  0  0  0
   -4.1110   -5.4376    0.0000 C   0  0  0  0  0  0  0  0  0  0  0  0
   -2.7406   -4.8275    0.0000 C   0  0  0  0  0  0  0  0  0  0  0  0
   -1.5271   -5.7092    0.0000 C   0  0  0  0  0  0  0  0  0  0  0  0
   -1.6839   -7.2010    0.0000 C   0  0  0  0  0  0  0  0  0  0  0  0
   -3.0542   -7.8111    0.0000 C   0  0  0  0  0  0  0  0  0  0  0  0
   -3.2110   -9.3029    0.0000 Br  0  0  0  0  0  0  0  0  0  0  0  0
   -0.1568   -5.0991    0.0000 C   0  0  0  0  0  0  0  0  0  0  0  0
    1.3396   -4.9944    0.0000 C   0  0  0  0  0  0  0  0  0  0  0  0
    0.2061   -6.5545    0.0000 C   0  0  0  0  0  0  0  0  0  0  0  0
   -0.0000   -3.6073    0.0000 C   0  0  0  0  0  0  0  0  0  0  0  0
    1.2135   -2.7256    0.0000 N   0  0  0  0  0  0  0  0  0  0  0  0
    0.7500   -1.2990    0.0000 C   0  0  0  0  0  0  0  0  0  0  0  0
    1.5000    0.0000    0.0000 C   0  0  0  0  0  0  0  0  0  0  0  0
    0.7500    1.2990    0.0000 C   0  0  0  0  0  0  0  0  0  0  0  0
    1.5000    2.5981    0.0000 C   0  0  0  0  0  0  0  0  0  0  0  0
    2.2500    3.8971    0.0000 N   0  0  0  0  0  0  0  0  0  0  0  0
   -0.7500    1.2990    0.0000 C   0  0  0  0  0  0  0  0  0  0  0  0
   -1.5000    0.0000    0.0000 C   0  0  0  0  0  0  0  0  0  0  0  0
   -0.7500   -1.2990    0.0000 C   0  0  0  0  0  0  0  0  0  0  0  0
   -1.2135   -2.7256    0.0000 C   0  0  0  0  0  0  0  0  0  0  0  0
   -2.5838   -3.3357    0.0000 C   0  0  0  0  0  0  0  0  0  0  0  0
   -3.7974   -2.4540    0.0000 O   0  0  0  0  0  0  0  0  0  0  0  0
  1  2  1  0
  2  3  1  0
  3  4  2  0
  4  5  1  0
  5  6  2  0
  6  7  1  0
  7  8  2  0
  8  9  1  0
  6 10  1  0
 10 11  1  0
 10 12  1  0
 10 13  1  0
 13 14  1  0
 14 15  1  0
 15 16  2  0
 16 17  1  0
 17 18  1  0
 18 19  3  0
 17 20  2  0
 20 21  1  0
 21 22  2  0
 22 23  1  0
 23 24  1  0
 24 25  2  0
  8  3  1  0
 23 13  2  0
 24  5  1  0
 22 15  1  0
M  END
>  <Compound_ID>  (213) 
CHEMBL3923481

>  <Molecule Name>  (213) 
nan

>  <Molecular Weight>  (213) 
395.26

>  <AlogP>  (213) 
4.68

>  <Smiles>  (213) 
COc1cc2c(cc1Br)C(C)(C)c1[nH]c3cc(C#N)ccc3c1C2=O

>  <Standard Type>  (213) 
IC50

>  <Standard Relation>  (213) 
'='

>  <Standard Units>  (213) 
nM

>  <Standard Value>  (213) 
29.29

>  <Assay ChEMBL ID>  (213) 
CHEMBL3887074

>  <Assay Description>  (213) 
Inhibition Assay: ALK-inhibiting activity was measured by following an activity of inhibiting phosphorylation by biotinylated peptide (EGPWLEEEEEAYGWMDF). For the detection of phosphorylation of the biotinylated peptide, time-resolved fluorescence measurement was performed using an anti-phosphorylated tyrosine antibody labeled with europium cryptate and streptavidin conjugated to XL665, i.e., an allophycocyanin derivative.

>  <BAO Format ID>  (213) 
BAO_0000357

>  <BAO Label>  (213) 
single protein format

>  <Assay Organism>  (213) 
Homo sapiens

>  <Target ChEMBL ID>  (213) 
CHEMBL4247

>  <Target Name>  (213) 
ALK tyrosine kinase receptor

>  <Target Organism>  (213) 
Homo sapiens

>  <Target Type>  (213) 
SINGLE PROTEIN

>  <Document ChEMBL ID>  (213) 
CHEMBL3886150

>  <Source Description>  (213) 
BindingDB Database

>  <Document Journal>  (213) 
nan

>  <Document Year>  (213) 
2015.0

>  <Active>  (213) 
1.0

>  <bits>  (213) 
<rdkit.DataStructs.cDataStructs.ExplicitBitVect object at 0x000002422F18A1F0>

>  <Group>  (213) 
G2

$$$$

     RDKit          2D

 33 37  0  0  0  0  0  0  0  0999 V2000
    2.6491   -3.5623    0.0000 C   0  0  0  0  0  0  0  0  0  0  0  0
    1.5000   -2.5981    0.0000 C   0  0  0  0  0  0  0  0  0  0  0  0
    2.6491   -1.6339    0.0000 C   0  0  0  0  0  0  0  0  0  0  0  0
    0.7500   -1.2990    0.0000 C   0  0  0  0  0  0  0  0  0  0  0  0
    1.5000    0.0000    0.0000 C   0  0  0  0  0  0  0  0  0  0  0  0
    0.7500    1.2990    0.0000 C   0  0  0  0  0  0  0  0  0  0  0  0
    1.5000    2.5981    0.0000 C   0  0  0  0  0  0  0  0  0  0  0  0
    3.0000    2.5981    0.0000 N   0  0  0  0  0  0  0  0  0  0  0  0
    3.7500    1.2990    0.0000 C   0  0  0  0  0  0  0  0  0  0  0  0
    5.2500    1.2990    0.0000 C   0  0  0  0  0  0  0  0  0  0  0  0
    6.0000    2.5981    0.0000 N   0  0  0  0  0  0  0  0  0  0  0  0
    7.5000    2.5981    0.0000 S   0  0  0  0  0  0  0  0  0  0  0  0
    9.0000    2.5981    0.0000 C   0  0  0  0  0  0  0  0  0  0  0  0
    7.5000    4.0981    0.0000 O   0  0  0  0  0  0  0  0  0  0  0  0
    7.5000    1.0981    0.0000 O   0  0  0  0  0  0  0  0  0  0  0  0
    5.2500    3.8971    0.0000 C   0  0  0  0  0  0  0  0  0  0  0  0
    3.7500    3.8971    0.0000 C   0  0  0  0  0  0  0  0  0  0  0  0
   -0.7500    1.2990    0.0000 C   0  0  0  0  0  0  0  0  0  0  0  0
   -1.5000    0.0000    0.0000 C   0  0  0  0  0  0  0  0  0  0  0  0
   -0.7500   -1.2990    0.0000 C   0  0  0  0  0  0  0  0  0  0  0  0
   -1.5000   -2.5981    0.0000 C   0  0  0  0  0  0  0  0  0  0  0  0
   -3.0000   -2.5981    0.0000 O   0  0  0  0  0  0  0  0  0  0  0  0
   -0.7500   -3.8971    0.0000 C   0  0  0  0  0  0  0  0  0  0  0  0
    0.7500   -3.8971    0.0000 C   0  0  0  0  0  0  0  0  0  0  0  0
    1.2135   -5.3237    0.0000 N   0  0  0  0  0  0  0  0  0  0  0  0
    0.0000   -6.2054    0.0000 C   0  0  0  0  0  0  0  0  0  0  0  0
   -0.1568   -7.6972    0.0000 C   0  0  0  0  0  0  0  0  0  0  0  0
   -1.5271   -8.3073    0.0000 C   0  0  0  0  0  0  0  0  0  0  0  0
   -1.6839   -9.7990    0.0000 C   0  0  0  0  0  0  0  0  0  0  0  0
   -1.8407  -11.2908    0.0000 N   0  0  0  0  0  0  0  0  0  0  0  0
   -2.7406   -7.4256    0.0000 C   0  0  0  0  0  0  0  0  0  0  0  0
   -2.5838   -5.9338    0.0000 C   0  0  0  0  0  0  0  0  0  0  0  0
   -1.2135   -5.3237    0.0000 C   0  0  0  0  0  0  0  0  0  0  0  0
  1  2  1  0
  2  3  1  0
  2  4  1  0
  4  5  2  0
  5  6  1  0
  6  7  1  0
  7  8  1  0
  8  9  1  0
  9 10  1  0
 10 11  1  0
 11 12  1  0
 12 13  1  0
 12 14  2  0
 12 15  2  0
 11 16  1  0
 16 17  1  0
  6 18  2  0
 18 19  1  0
 19 20  2  0
 20 21  1  0
 21 22  2  0
 21 23  1  0
 23 24  2  0
 24 25  1  0
 25 26  1  0
 26 27  2  0
 27 28  1  0
 28 29  1  0
 29 30  3  0
 28 31  2  0
 31 32  1  0
 32 33  2  0
 24  2  1  0
 33 26  1  0
 20  4  1  0
 33 23  1  0
 17  8  1  0
M  END
>  <Compound_ID>  (214) 
CHEMBL3965185

>  <Molecule Name>  (214) 
nan

>  <Molecular Weight>  (214) 
462.58

>  <AlogP>  (214) 
2.99

>  <Smiles>  (214) 
CC1(C)c2cc(CN3CCN(S(C)(=O)=O)CC3)ccc2C(=O)c2c1[nH]c1cc(C#N)ccc21

>  <Standard Type>  (214) 
IC50

>  <Standard Relation>  (214) 
'='

>  <Standard Units>  (214) 
nM

>  <Standard Value>  (214) 
3.473

>  <Assay ChEMBL ID>  (214) 
CHEMBL3887074

>  <Assay Description>  (214) 
Inhibition Assay: ALK-inhibiting activity was measured by following an activity of inhibiting phosphorylation by biotinylated peptide (EGPWLEEEEEAYGWMDF). For the detection of phosphorylation of the biotinylated peptide, time-resolved fluorescence measurement was performed using an anti-phosphorylated tyrosine antibody labeled with europium cryptate and streptavidin conjugated to XL665, i.e., an allophycocyanin derivative.

>  <BAO Format ID>  (214) 
BAO_0000357

>  <BAO Label>  (214) 
single protein format

>  <Assay Organism>  (214) 
Homo sapiens

>  <Target ChEMBL ID>  (214) 
CHEMBL4247

>  <Target Name>  (214) 
ALK tyrosine kinase receptor

>  <Target Organism>  (214) 
Homo sapiens

>  <Target Type>  (214) 
SINGLE PROTEIN

>  <Document ChEMBL ID>  (214) 
CHEMBL3886150

>  <Source Description>  (214) 
BindingDB Database

>  <Document Journal>  (214) 
nan

>  <Document Year>  (214) 
2015.0

>  <Active>  (214) 
1.0

>  <bits>  (214) 
<rdkit.DataStructs.cDataStructs.ExplicitBitVect object at 0x000002422F18A110>

>  <Group>  (214) 
G2

$$$$

     RDKit          2D

 30 34  0  0  0  0  0  0  0  0999 V2000
    2.6491   -3.5623    0.0000 C   0  0  0  0  0  0  0  0  0  0  0  0
    1.5000   -2.5981    0.0000 C   0  0  0  0  0  0  0  0  0  0  0  0
    2.6491   -1.6339    0.0000 C   0  0  0  0  0  0  0  0  0  0  0  0
    0.7500   -1.2990    0.0000 C   0  0  0  0  0  0  0  0  0  0  0  0
    1.5000    0.0000    0.0000 C   0  0  0  0  0  0  0  0  0  0  0  0
    0.7500    1.2990    0.0000 C   0  0  0  0  0  0  0  0  0  0  0  0
    1.5000    2.5981    0.0000 O   0  0  0  0  0  0  0  0  0  0  0  0
    3.0000    2.5981    0.0000 C   0  0  0  0  0  0  0  0  0  0  0  0
    3.7500    1.2990    0.0000 C   0  0  0  0  0  0  0  0  0  0  0  0
    5.2500    1.2990    0.0000 C   0  0  0  0  0  0  0  0  0  0  0  0
    6.0000    2.5981    0.0000 N   0  0  0  0  0  0  0  0  0  0  0  0
    5.2500    3.8971    0.0000 C   0  0  0  0  0  0  0  0  0  0  0  0
    3.7500    3.8971    0.0000 C   0  0  0  0  0  0  0  0  0  0  0  0
   -0.7500    1.2990    0.0000 C   0  0  0  0  0  0  0  0  0  0  0  0
   -1.5000    0.0000    0.0000 C   0  0  0  0  0  0  0  0  0  0  0  0
   -0.7500   -1.2990    0.0000 C   0  0  0  0  0  0  0  0  0  0  0  0
   -1.5000   -2.5981    0.0000 C   0  0  0  0  0  0  0  0  0  0  0  0
   -3.0000   -2.5981    0.0000 O   0  0  0  0  0  0  0  0  0  0  0  0
   -0.7500   -3.8971    0.0000 C   0  0  0  0  0  0  0  0  0  0  0  0
    0.7500   -3.8971    0.0000 C   0  0  0  0  0  0  0  0  0  0  0  0
    1.2135   -5.3237    0.0000 N   0  0  0  0  0  0  0  0  0  0  0  0
    0.0000   -6.2054    0.0000 C   0  0  0  0  0  0  0  0  0  0  0  0
   -0.1568   -7.6972    0.0000 C   0  0  0  0  0  0  0  0  0  0  0  0
   -1.5271   -8.3073    0.0000 C   0  0  0  0  0  0  0  0  0  0  0  0
   -1.6839   -9.7990    0.0000 C   0  0  0  0  0  0  0  0  0  0  0  0
   -1.8407  -11.2908    0.0000 N   0  0  0  0  0  0  0  0  0  0  0  0
   -2.7406   -7.4256    0.0000 C   0  0  0  0  0  0  0  0  0  0  0  0
   -4.1110   -8.0357    0.0000 F   0  0  0  0  0  0  0  0  0  0  0  0
   -2.5838   -5.9338    0.0000 C   0  0  0  0  0  0  0  0  0  0  0  0
   -1.2135   -5.3237    0.0000 C   0  0  0  0  0  0  0  0  0  0  0  0
  1  2  1  0
  2  3  1  0
  2  4  1  0
  4  5  2  0
  5  6  1  0
  6  7  1  0
  7  8  1  0
  8  9  1  0
  9 10  1  0
 10 11  1  0
 11 12  1  0
 12 13  1  0
  6 14  2  0
 14 15  1  0
 15 16  2  0
 16 17  1  0
 17 18  2  0
 17 19  1  0
 19 20  2  0
 20 21  1  0
 21 22  1  0
 22 23  2  0
 23 24  1  0
 24 25  1  0
 25 26  3  0
 24 27  2  0
 27 28  1  0
 27 29  1  0
 29 30  2  0
 20  2  1  0
 30 22  1  0
 16  4  1  0
 30 19  1  0
 13  8  1  0
M  END
>  <Compound_ID>  (215) 
CHEMBL3973126

>  <Molecule Name>  (215) 
nan

>  <Molecular Weight>  (215) 
403.46

>  <AlogP>  (215) 
4.18

>  <Smiles>  (215) 
CC1(C)c2cc(OC3CCNCC3)ccc2C(=O)c2c1[nH]c1cc(C#N)c(F)cc21

>  <Standard Type>  (215) 
IC50

>  <Standard Relation>  (215) 
'='

>  <Standard Units>  (215) 
nM

>  <Standard Value>  (215) 
5.719

>  <Assay ChEMBL ID>  (215) 
CHEMBL3887074

>  <Assay Description>  (215) 
Inhibition Assay: ALK-inhibiting activity was measured by following an activity of inhibiting phosphorylation by biotinylated peptide (EGPWLEEEEEAYGWMDF). For the detection of phosphorylation of the biotinylated peptide, time-resolved fluorescence measurement was performed using an anti-phosphorylated tyrosine antibody labeled with europium cryptate and streptavidin conjugated to XL665, i.e., an allophycocyanin derivative.

>  <BAO Format ID>  (215) 
BAO_0000357

>  <BAO Label>  (215) 
single protein format

>  <Assay Organism>  (215) 
Homo sapiens

>  <Target ChEMBL ID>  (215) 
CHEMBL4247

>  <Target Name>  (215) 
ALK tyrosine kinase receptor

>  <Target Organism>  (215) 
Homo sapiens

>  <Target Type>  (215) 
SINGLE PROTEIN

>  <Document ChEMBL ID>  (215) 
CHEMBL3886150

>  <Source Description>  (215) 
BindingDB Database

>  <Document Journal>  (215) 
nan

>  <Document Year>  (215) 
2015.0

>  <Active>  (215) 
1.0

>  <bits>  (215) 
<rdkit.DataStructs.cDataStructs.ExplicitBitVect object at 0x000002422F18A030>

>  <Group>  (215) 
G2

$$$$

     RDKit          2D

 38 43  0  0  0  0  0  0  0  0999 V2000
    1.3396   -4.9944    0.0000 C   0  0  0  0  0  0  0  0  0  0  0  0
   -0.1568   -5.0991    0.0000 C   0  0  0  0  0  0  0  0  0  0  0  0
    0.2061   -6.5545    0.0000 C   0  0  0  0  0  0  0  0  0  0  0  0
   -1.5271   -5.7092    0.0000 C   0  0  0  0  0  0  0  0  0  0  0  0
   -1.6839   -7.2010    0.0000 C   0  0  0  0  0  0  0  0  0  0  0  0
   -3.0542   -7.8111    0.0000 C   0  0  0  0  0  0  0  0  0  0  0  0
   -3.2110   -9.3029    0.0000 O   0  0  0  0  0  0  0  0  0  0  0  0
   -1.9975  -10.1845    0.0000 C   0  0  0  0  0  0  0  0  0  0  0  0
   -0.6272   -9.5744    0.0000 C   0  0  0  0  0  0  0  0  0  0  0  0
    0.5864  -10.4561    0.0000 C   0  0  0  0  0  0  0  0  0  0  0  0
    0.4296  -11.9479    0.0000 O   0  0  0  0  0  0  0  0  0  0  0  0
   -0.9408  -12.5580    0.0000 C   0  0  0  0  0  0  0  0  0  0  0  0
   -2.1543  -11.6763    0.0000 C   0  0  0  0  0  0  0  0  0  0  0  0
   -4.2677   -6.9294    0.0000 C   0  0  0  0  0  0  0  0  0  0  0  0
   -5.6381   -7.5395    0.0000 S   0  0  0  0  0  0  0  0  0  0  0  0
   -6.2482   -6.1692    0.0000 O   0  0  0  0  0  0  0  0  0  0  0  0
   -5.0280   -8.9098    0.0000 O   0  0  0  0  0  0  0  0  0  0  0  0
   -7.0084   -8.1496    0.0000 N   0  0  0  0  0  0  0  0  0  0  0  0
   -8.2219   -7.2679    0.0000 C   0  0  0  0  0  0  0  0  0  0  0  0
   -9.5922   -7.8780    0.0000 C   0  0  0  0  0  0  0  0  0  0  0  0
   -9.7490   -9.3698    0.0000 O   0  0  0  0  0  0  0  0  0  0  0  0
   -8.5355  -10.2515    0.0000 C   0  0  0  0  0  0  0  0  0  0  0  0
   -7.1652   -9.6414    0.0000 C   0  0  0  0  0  0  0  0  0  0  0  0
   -4.1110   -5.4376    0.0000 C   0  0  0  0  0  0  0  0  0  0  0  0
   -2.7406   -4.8275    0.0000 C   0  0  0  0  0  0  0  0  0  0  0  0
   -2.5838   -3.3357    0.0000 C   0  0  0  0  0  0  0  0  0  0  0  0
   -3.7974   -2.4540    0.0000 O   0  0  0  0  0  0  0  0  0  0  0  0
   -1.2135   -2.7256    0.0000 C   0  0  0  0  0  0  0  0  0  0  0  0
   -0.0000   -3.6073    0.0000 C   0  0  0  0  0  0  0  0  0  0  0  0
    1.2135   -2.7256    0.0000 N   0  0  0  0  0  0  0  0  0  0  0  0
    0.7500   -1.2990    0.0000 C   0  0  0  0  0  0  0  0  0  0  0  0
    1.5000    0.0000    0.0000 C   0  0  0  0  0  0  0  0  0  0  0  0
    0.7500    1.2990    0.0000 C   0  0  0  0  0  0  0  0  0  0  0  0
    1.5000    2.5981    0.0000 C   0  0  0  0  0  0  0  0  0  0  0  0
    2.2500    3.8971    0.0000 N   0  0  0  0  0  0  0  0  0  0  0  0
   -0.7500    1.2990    0.0000 C   0  0  0  0  0  0  0  0  0  0  0  0
   -1.5000    0.0000    0.0000 C   0  0  0  0  0  0  0  0  0  0  0  0
   -0.7500   -1.2990    0.0000 C   0  0  0  0  0  0  0  0  0  0  0  0
  1  2  1  0
  2  3  1  0
  2  4  1  0
  4  5  2  0
  5  6  1  0
  6  7  1  0
  7  8  1  0
  8  9  1  0
  9 10  1  0
 10 11  1  0
 11 12  1  0
 12 13  1  0
  6 14  2  0
 14 15  1  0
 15 16  2  0
 15 17  2  0
 15 18  1  0
 18 19  1  0
 19 20  1  0
 20 21  1  0
 21 22  1  0
 22 23  1  0
 14 24  1  0
 24 25  2  0
 25 26  1  0
 26 27  2  0
 26 28  1  0
 28 29  2  0
 29 30  1  0
 30 31  1  0
 31 32  2  0
 32 33  1  0
 33 34  1  0
 34 35  3  0
 33 36  2  0
 36 37  1  0
 37 38  2  0
 29  2  1  0
 38 31  1  0
 25  4  1  0
 38 28  1  0
 13  8  1  0
 23 18  1  0
M  END
>  <Compound_ID>  (216) 
CHEMBL3980776

>  <Molecule Name>  (216) 
nan

>  <Molecular Weight>  (216) 
535.62

>  <AlogP>  (216) 
3.49

>  <Smiles>  (216) 
CC1(C)c2cc(OC3CCOCC3)c(S(=O)(=O)N3CCOCC3)cc2C(=O)c2c1[nH]c1cc(C#N)ccc21

>  <Standard Type>  (216) 
IC50

>  <Standard Relation>  (216) 
'='

>  <Standard Units>  (216) 
nM

>  <Standard Value>  (216) 
9.617

>  <Assay ChEMBL ID>  (216) 
CHEMBL3887074

>  <Assay Description>  (216) 
Inhibition Assay: ALK-inhibiting activity was measured by following an activity of inhibiting phosphorylation by biotinylated peptide (EGPWLEEEEEAYGWMDF). For the detection of phosphorylation of the biotinylated peptide, time-resolved fluorescence measurement was performed using an anti-phosphorylated tyrosine antibody labeled with europium cryptate and streptavidin conjugated to XL665, i.e., an allophycocyanin derivative.

>  <BAO Format ID>  (216) 
BAO_0000357

>  <BAO Label>  (216) 
single protein format

>  <Assay Organism>  (216) 
Homo sapiens

>  <Target ChEMBL ID>  (216) 
CHEMBL4247

>  <Target Name>  (216) 
ALK tyrosine kinase receptor

>  <Target Organism>  (216) 
Homo sapiens

>  <Target Type>  (216) 
SINGLE PROTEIN

>  <Document ChEMBL ID>  (216) 
CHEMBL3886150

>  <Source Description>  (216) 
BindingDB Database

>  <Document Journal>  (216) 
nan

>  <Document Year>  (216) 
2015.0

>  <Active>  (216) 
1.0

>  <bits>  (216) 
<rdkit.DataStructs.cDataStructs.ExplicitBitVect object at 0x000002422F189CB0>

>  <Group>  (216) 
G2

$$$$

     RDKit          2D

 28 32  0  0  0  0  0  0  0  0999 V2000
    3.7500   -6.4952    0.0000 O   0  0  0  0  0  0  0  0  0  0  0  0
    3.0000   -5.1962    0.0000 C   0  0  0  0  0  0  0  0  0  0  0  0
    1.5000   -5.1962    0.0000 C   0  0  0  0  0  0  0  0  0  0  0  0
    0.7500   -3.8971    0.0000 C   0  0  0  0  0  0  0  0  0  0  0  0
    1.5000   -2.5981    0.0000 C   0  0  0  0  0  0  0  0  0  0  0  0
    0.7500   -1.2990    0.0000 C   0  0  0  0  0  0  0  0  0  0  0  0
    1.5000    0.0000    0.0000 C   0  0  0  0  0  0  0  0  0  0  0  0
    0.7500    1.2990    0.0000 C   0  0  0  0  0  0  0  0  0  0  0  0
   -0.7500    1.2990    0.0000 C   0  0  0  0  0  0  0  0  0  0  0  0
   -1.7537    2.4138    0.0000 C   0  0  0  0  0  0  0  0  0  0  0  0
   -1.4418    3.8810    0.0000 C   0  0  0  0  0  0  0  0  0  0  0  0
   -2.4455    4.9957    0.0000 C   0  0  0  0  0  0  0  0  0  0  0  0
   -1.6955    6.2947    0.0000 N   0  0  0  0  0  0  0  0  0  0  0  0
   -0.2283    5.9829    0.0000 N   0  0  0  0  0  0  0  0  0  0  0  0
    0.8864    6.9866    0.0000 C   0  0  0  0  0  0  0  0  0  0  0  0
    2.3130    6.5230    0.0000 C   0  0  0  0  0  0  0  0  0  0  0  0
    3.4277    7.5267    0.0000 C   0  0  0  0  0  0  0  0  0  0  0  0
    3.1158    8.9940    0.0000 N   0  0  0  0  0  0  0  0  0  0  0  0
    1.6893    9.4575    0.0000 C   0  0  0  0  0  0  0  0  0  0  0  0
    0.5745    8.4538    0.0000 C   0  0  0  0  0  0  0  0  0  0  0  0
   -0.0715    4.4911    0.0000 C   0  0  0  0  0  0  0  0  0  0  0  0
   -3.1240    1.8037    0.0000 N   0  0  0  0  0  0  0  0  0  0  0  0
   -2.9672    0.3119    0.0000 N   0  0  0  0  0  0  0  0  0  0  0  0
   -1.5000    0.0000    0.0000 C   0  0  0  0  0  0  0  0  0  0  0  0
   -0.7500   -1.2990    0.0000 N   0  0  0  0  0  0  0  0  0  0  0  0
    3.0000   -2.5981    0.0000 C   0  0  0  0  0  0  0  0  0  0  0  0
    3.7500   -3.8971    0.0000 C   0  0  0  0  0  0  0  0  0  0  0  0
    5.2500   -3.8971    0.0000 F   0  0  0  0  0  0  0  0  0  0  0  0
  1  2  1  0
  2  3  2  0
  3  4  1  0
  4  5  2  0
  5  6  1  0
  6  7  2  0
  7  8  1  0
  8  9  2  0
  9 10  1  0
 10 11  1  0
 11 12  1  0
 12 13  2  0
 13 14  1  0
 14 15  1  0
 15 16  1  0
 16 17  1  0
 17 18  1  0
 18 19  1  0
 19 20  1  0
 14 21  1  0
 10 22  2  0
 22 23  1  0
 23 24  1  0
 24 25  2  0
  5 26  1  0
 26 27  2  0
 27 28  1  0
 27  2  1  0
 25  6  1  0
 24  9  1  0
 21 11  2  0
 20 15  1  0
M  END
>  <Compound_ID>  (217) 
CHEMBL4586635

>  <Molecule Name>  (217) 
nan

>  <Molecular Weight>  (217) 
378.41

>  <AlogP>  (217) 
3.26

>  <Smiles>  (217) 
Oc1ccc(-c2ccc3c(-c4cnn(C5CCNCC5)c4)n[nH]c3n2)cc1F

>  <Standard Type>  (217) 
IC50

>  <Standard Relation>  (217) 
'='

>  <Standard Units>  (217) 
nM

>  <Standard Value>  (217) 
39.64

>  <Assay ChEMBL ID>  (217) 
CHEMBL4370936

>  <Assay Description>  (217) 
Inhibition of recombinant ALK (unknown origin) using peptide substrate measured after 1 hr by LanthaScreen assay

>  <BAO Format ID>  (217) 
BAO_0000357

>  <BAO Label>  (217) 
single protein format

>  <Assay Organism>  (217) 
Homo sapiens

>  <Target ChEMBL ID>  (217) 
CHEMBL4247

>  <Target Name>  (217) 
ALK tyrosine kinase receptor

>  <Target Organism>  (217) 
Homo sapiens

>  <Target Type>  (217) 
SINGLE PROTEIN

>  <Document ChEMBL ID>  (217) 
CHEMBL4368941

>  <Source Description>  (217) 
Scientific Literature

>  <Document Journal>  (217) 
Bioorg Med Chem Lett

>  <Document Year>  (217) 
2019.0

>  <Active>  (217) 
1.0

>  <bits>  (217) 
<rdkit.DataStructs.cDataStructs.ExplicitBitVect object at 0x000002422F1899A0>

>  <Group>  (217) 
G2

$$$$

     RDKit          2D

 36 39  0  0  0  0  0  0  0  0999 V2000
    3.7500   -1.2990    0.0000 C   0  0  0  0  0  0  0  0  0  0  0  0
    3.0000    0.0000    0.0000 O   0  0  0  0  0  0  0  0  0  0  0  0
    1.5000    0.0000    0.0000 C   0  0  0  0  0  0  0  0  0  0  0  0
    0.7500   -1.2990    0.0000 C   0  0  0  0  0  0  0  0  0  0  0  0
   -0.7500   -1.2990    0.0000 C   0  0  0  0  0  0  0  0  0  0  0  0
   -1.5000    0.0000    0.0000 C   0  0  0  0  0  0  0  0  0  0  0  0
   -0.7500    1.2990    0.0000 C   0  0  0  0  0  0  0  0  0  0  0  0
    0.7500    1.2990    0.0000 C   0  0  0  0  0  0  0  0  0  0  0  0
    1.5000    2.5981    0.0000 N   0  0  0  0  0  0  0  0  0  0  0  0
    3.0000    2.5981    0.0000 C   0  0  0  0  0  0  0  0  0  0  0  0
    3.7500    1.2990    0.0000 N   0  0  0  0  0  0  0  0  0  0  0  0
    5.2500    1.2990    0.0000 C   0  0  0  0  0  0  0  0  0  0  0  0
    6.0000    2.5981    0.0000 C   0  0  0  0  0  0  0  0  0  0  0  0
    7.5000    2.5981    0.0000 Cl  0  0  0  0  0  0  0  0  0  0  0  0
    5.2500    3.8971    0.0000 C   0  0  0  0  0  0  0  0  0  0  0  0
    6.0000    5.1962    0.0000 N   0  0  0  0  0  0  0  0  0  0  0  0
    5.2500    6.4952    0.0000 C   0  0  0  0  0  0  0  0  0  0  0  0
    3.7500    6.4952    0.0000 C   0  0  0  0  0  0  0  0  0  0  0  0
    3.0000    7.7942    0.0000 C   0  0  0  0  0  0  0  0  0  0  0  0
    3.7500    9.0933    0.0000 C   0  0  0  0  0  0  0  0  0  0  0  0
    5.2500    9.0933    0.0000 C   0  0  0  0  0  0  0  0  0  0  0  0
    6.0000    7.7942    0.0000 C   0  0  0  0  0  0  0  0  0  0  0  0
    7.5000    7.7942    0.0000 S   0  0  0  0  0  0  0  0  0  0  0  0
    7.5000    6.2942    0.0000 O   0  0  0  0  0  0  0  0  0  0  0  0
    7.5000    9.2942    0.0000 O   0  0  0  0  0  0  0  0  0  0  0  0
    9.0000    7.7942    0.0000 C   0  0  0  0  0  0  0  0  0  0  0  0
    9.7500    9.0933    0.0000 C   0  0  0  0  0  0  0  0  0  0  0  0
    9.7500    6.4952    0.0000 C   0  0  0  0  0  0  0  0  0  0  0  0
    3.7500    3.8971    0.0000 N   0  0  0  0  0  0  0  0  0  0  0  0
   -3.0000    0.0000    0.0000 C   0  0  0  0  0  0  0  0  0  0  0  0
   -3.7500   -1.2990    0.0000 C   0  0  0  0  0  0  0  0  0  0  0  0
   -3.0000   -2.5981    0.0000 C   0  0  0  0  0  0  0  0  0  0  0  0
   -3.7500   -3.8971    0.0000 O   0  0  0  0  0  0  0  0  0  0  0  0
   -1.5000   -2.5981    0.0000 C   0  0  0  0  0  0  0  0  0  0  0  0
   -0.0905   -3.1111    0.0000 C   0  0  0  0  0  0  0  0  0  0  0  0
   -1.7605   -4.0753    0.0000 C   0  0  0  0  0  0  0  0  0  0  0  0
  1  2  1  0
  2  3  1  0
  3  4  2  0
  4  5  1  0
  5  6  2  0
  6  7  1  0
  7  8  2  0
  8  9  1  0
  9 10  1  0
 10 11  2  0
 11 12  1  0
 12 13  2  0
 13 14  1  0
 13 15  1  0
 15 16  1  0
 16 17  1  0
 17 18  2  0
 18 19  1  0
 19 20  2  0
 20 21  1  0
 21 22  2  0
 22 23  1  0
 23 24  2  0
 23 25  2  0
 23 26  1  0
 26 27  1  0
 26 28  1  0
 15 29  2  0
  6 30  1  0
 30 31  1  0
 31 32  1  0
 32 33  1  0
 32 34  1  0
 34 35  1  0
 34 36  1  0
  8  3  1  0
 29 10  1  0
 34  5  1  0
 22 17  1  0
M  END
>  <Compound_ID>  (218) 
CHEMBL3786270

>  <Molecule Name>  (218) 
nan

>  <Molecular Weight>  (218) 
531.08

>  <AlogP>  (218) 
5.39

>  <Smiles>  (218) 
COc1cc2c(cc1Nc1ncc(Cl)c(Nc3ccccc3S(=O)(=O)C(C)C)n1)CCC(O)C2(C)C

>  <Standard Type>  (218) 
IC50

>  <Standard Relation>  (218) 
'='

>  <Standard Units>  (218) 
nM

>  <Standard Value>  (218) 
56.0

>  <Assay ChEMBL ID>  (218) 
CHEMBL3791604

>  <Assay Description>  (218) 
Inhibition of ALK L1196M mutant (unknown origin) after 30 mins by HTRF assay

>  <BAO Format ID>  (218) 
BAO_0000357

>  <BAO Label>  (218) 
single protein format

>  <Assay Organism>  (218) 
Homo sapiens

>  <Target ChEMBL ID>  (218) 
CHEMBL4247

>  <Target Name>  (218) 
ALK tyrosine kinase receptor

>  <Target Organism>  (218) 
Homo sapiens

>  <Target Type>  (218) 
SINGLE PROTEIN

>  <Document ChEMBL ID>  (218) 
CHEMBL3784918

>  <Source Description>  (218) 
Scientific Literature

>  <Document Journal>  (218) 
Bioorg Med Chem Lett

>  <Document Year>  (218) 
2016.0

>  <Active>  (218) 
1.0

>  <bits>  (218) 
<rdkit.DataStructs.cDataStructs.ExplicitBitVect object at 0x000002422F189690>

>  <Group>  (218) 
G2

$$$$

     RDKit          2D

 42 45  0  0  0  0  0  0  0  0999 V2000
    3.7500   -1.2990    0.0000 C   0  0  0  0  0  0  0  0  0  0  0  0
    3.0000    0.0000    0.0000 O   0  0  0  0  0  0  0  0  0  0  0  0
    1.5000    0.0000    0.0000 C   0  0  0  0  0  0  0  0  0  0  0  0
    0.7500   -1.2990    0.0000 C   0  0  0  0  0  0  0  0  0  0  0  0
   -0.7500   -1.2990    0.0000 C   0  0  0  0  0  0  0  0  0  0  0  0
   -1.5000   -2.5981    0.0000 S   0  0  0  0  0  0  0  0  0  0  0  0
   -0.2010   -3.3481    0.0000 O   0  0  0  0  0  0  0  0  0  0  0  0
   -2.7990   -1.8481    0.0000 O   0  0  0  0  0  0  0  0  0  0  0  0
   -2.2500   -3.8971    0.0000 C   0  0  0  0  0  0  0  0  0  0  0  0
   -1.5000   -5.1962    0.0000 C   0  0  0  0  0  0  0  0  0  0  0  0
   -0.0000   -5.1962    0.0000 O   0  0  0  0  0  0  0  0  0  0  0  0
   -2.2500   -6.4952    0.0000 N   0  0  0  0  0  0  0  0  0  0  0  0
   -3.7500   -6.4952    0.0000 C   0  0  0  0  0  0  0  0  0  0  0  0
   -4.5000   -7.7942    0.0000 C   0  0  0  0  0  0  0  0  0  0  0  0
   -3.7500   -9.0933    0.0000 N   0  0  0  0  0  0  0  0  0  0  0  0
   -4.5000  -10.3923    0.0000 C   0  0  0  0  0  0  0  0  0  0  0  0
   -2.2500   -9.0933    0.0000 C   0  0  0  0  0  0  0  0  0  0  0  0
   -1.5000   -7.7942    0.0000 C   0  0  0  0  0  0  0  0  0  0  0  0
   -1.5000    0.0000    0.0000 C   0  0  0  0  0  0  0  0  0  0  0  0
   -0.7500    1.2990    0.0000 C   0  0  0  0  0  0  0  0  0  0  0  0
    0.7500    1.2990    0.0000 C   0  0  0  0  0  0  0  0  0  0  0  0
    1.5000    2.5981    0.0000 N   0  0  0  0  0  0  0  0  0  0  0  0
    3.0000    2.5981    0.0000 C   0  0  0  0  0  0  0  0  0  0  0  0
    3.7500    1.2990    0.0000 N   0  0  0  0  0  0  0  0  0  0  0  0
    5.2500    1.2990    0.0000 C   0  0  0  0  0  0  0  0  0  0  0  0
    6.0000    2.5981    0.0000 C   0  0  0  0  0  0  0  0  0  0  0  0
    7.5000    2.5981    0.0000 Cl  0  0  0  0  0  0  0  0  0  0  0  0
    5.2500    3.8971    0.0000 C   0  0  0  0  0  0  0  0  0  0  0  0
    6.0000    5.1962    0.0000 N   0  0  0  0  0  0  0  0  0  0  0  0
    5.2500    6.4952    0.0000 C   0  0  0  0  0  0  0  0  0  0  0  0
    3.7500    6.4952    0.0000 C   0  0  0  0  0  0  0  0  0  0  0  0
    3.0000    7.7942    0.0000 C   0  0  0  0  0  0  0  0  0  0  0  0
    3.7500    9.0933    0.0000 C   0  0  0  0  0  0  0  0  0  0  0  0
    5.2500    9.0933    0.0000 C   0  0  0  0  0  0  0  0  0  0  0  0
    6.0000    7.7942    0.0000 C   0  0  0  0  0  0  0  0  0  0  0  0
    7.5000    7.7942    0.0000 S   0  0  0  0  0  0  0  0  0  0  0  0
    7.5000    6.2942    0.0000 O   0  0  0  0  0  0  0  0  0  0  0  0
    7.5000    9.2942    0.0000 O   0  0  0  0  0  0  0  0  0  0  0  0
    9.0000    7.7942    0.0000 C   0  0  0  0  0  0  0  0  0  0  0  0
    9.7500    9.0933    0.0000 C   0  0  0  0  0  0  0  0  0  0  0  0
    9.7500    6.4952    0.0000 C   0  0  0  0  0  0  0  0  0  0  0  0
    3.7500    3.8971    0.0000 N   0  0  0  0  0  0  0  0  0  0  0  0
  1  2  1  0
  2  3  1  0
  3  4  2  0
  4  5  1  0
  5  6  1  0
  6  7  2  0
  6  8  2  0
  6  9  1  0
  9 10  1  0
 10 11  2  0
 10 12  1  0
 12 13  1  0
 13 14  1  0
 14 15  1  0
 15 16  1  0
 15 17  1  0
 17 18  1  0
  5 19  2  0
 19 20  1  0
 20 21  2  0
 21 22  1  0
 22 23  1  0
 23 24  2  0
 24 25  1  0
 25 26  2  0
 26 27  1  0
 26 28  1  0
 28 29  1  0
 29 30  1  0
 30 31  2  0
 31 32  1  0
 32 33  2  0
 33 34  1  0
 34 35  2  0
 35 36  1  0
 36 37  2  0
 36 38  2  0
 36 39  1  0
 39 40  1  0
 39 41  1  0
 28 42  2  0
 21  3  1  0
 42 23  1  0
 18 12  1  0
 35 30  1  0
M  END
>  <Compound_ID>  (219) 
CHEMBL4754109

>  <Molecule Name>  (219) 
nan

>  <Molecular Weight>  (219) 
637.18

>  <AlogP>  (219) 
3.36

>  <Smiles>  (219) 
COc1cc(S(=O)(=O)CC(=O)N2CCN(C)CC2)ccc1Nc1ncc(Cl)c(Nc2ccccc2S(=O)(=O)C(C)C)n1

>  <Standard Type>  (219) 
IC50

>  <Standard Relation>  (219) 
'='

>  <Standard Units>  (219) 
nM

>  <Standard Value>  (219) 
47.0

>  <Assay ChEMBL ID>  (219) 
CHEMBL4672463

>  <Assay Description>  (219) 
Inhibition of ALK G1202R mutant (unknown origin) using peptide substrate incubated for 60 mins in presence of ATP by HTRF assay

>  <BAO Format ID>  (219) 
BAO_0000357

>  <BAO Label>  (219) 
single protein format

>  <Assay Organism>  (219) 
Homo sapiens

>  <Target ChEMBL ID>  (219) 
CHEMBL4247

>  <Target Name>  (219) 
ALK tyrosine kinase receptor

>  <Target Organism>  (219) 
Homo sapiens

>  <Target Type>  (219) 
SINGLE PROTEIN

>  <Document ChEMBL ID>  (219) 
CHEMBL4665877

>  <Source Description>  (219) 
Scientific Literature

>  <Document Journal>  (219) 
Bioorg Med Chem

>  <Document Year>  (219) 
2020.0

>  <Active>  (219) 
1.0

>  <bits>  (219) 
<rdkit.DataStructs.cDataStructs.ExplicitBitVect object at 0x000002422F1890E0>

>  <Group>  (219) 
G2

$$$$

     RDKit          2D

 35 40  0  0  0  0  0  0  0  0999 V2000
   -8.2219   -7.2679    0.0000 C   0  0  0  0  0  0  0  0  0  0  0  0
   -6.8516   -6.6578    0.0000 C   0  0  0  0  0  0  0  0  0  0  0  0
   -5.6381   -7.5395    0.0000 C   0  0  0  0  0  0  0  0  0  0  0  0
   -4.2677   -6.9294    0.0000 C   0  0  0  0  0  0  0  0  0  0  0  0
   -4.1110   -5.4376    0.0000 C   0  0  0  0  0  0  0  0  0  0  0  0
   -2.7406   -4.8275    0.0000 C   0  0  0  0  0  0  0  0  0  0  0  0
   -1.5271   -5.7092    0.0000 C   0  0  0  0  0  0  0  0  0  0  0  0
   -1.6839   -7.2010    0.0000 C   0  0  0  0  0  0  0  0  0  0  0  0
   -3.0542   -7.8111    0.0000 C   0  0  0  0  0  0  0  0  0  0  0  0
   -3.2110   -9.3029    0.0000 N   0  0  0  0  0  0  0  0  0  0  0  0
   -4.5813   -9.9130    0.0000 C   0  0  0  0  0  0  0  0  0  0  0  0
   -4.7381  -11.4047    0.0000 C   0  0  0  0  0  0  0  0  0  0  0  0
   -3.5246  -12.2864    0.0000 N   0  0  0  0  0  0  0  0  0  0  0  0
   -3.6814  -13.7782    0.0000 C   0  0  0  0  0  0  0  0  0  0  0  0
   -4.8471  -14.7222    0.0000 C   0  0  0  0  0  0  0  0  0  0  0  0
   -3.9031  -15.8879    0.0000 C   0  0  0  0  0  0  0  0  0  0  0  0
   -2.7374  -14.9439    0.0000 C   0  0  0  0  0  0  0  0  0  0  0  0
   -2.1543  -11.6763    0.0000 C   0  0  0  0  0  0  0  0  0  0  0  0
   -1.9975  -10.1845    0.0000 C   0  0  0  0  0  0  0  0  0  0  0  0
   -0.1568   -5.0991    0.0000 C   0  0  0  0  0  0  0  0  0  0  0  0
    1.3396   -4.9944    0.0000 C   0  0  0  0  0  0  0  0  0  0  0  0
    0.2061   -6.5545    0.0000 C   0  0  0  0  0  0  0  0  0  0  0  0
   -0.0000   -3.6073    0.0000 C   0  0  0  0  0  0  0  0  0  0  0  0
    1.2135   -2.7256    0.0000 N   0  0  0  0  0  0  0  0  0  0  0  0
    0.7500   -1.2990    0.0000 C   0  0  0  0  0  0  0  0  0  0  0  0
    1.5000    0.0000    0.0000 C   0  0  0  0  0  0  0  0  0  0  0  0
    0.7500    1.2990    0.0000 C   0  0  0  0  0  0  0  0  0  0  0  0
    1.5000    2.5981    0.0000 C   0  0  0  0  0  0  0  0  0  0  0  0
    2.2500    3.8971    0.0000 N   0  0  0  0  0  0  0  0  0  0  0  0
   -0.7500    1.2990    0.0000 C   0  0  0  0  0  0  0  0  0  0  0  0
   -1.5000    0.0000    0.0000 C   0  0  0  0  0  0  0  0  0  0  0  0
   -0.7500   -1.2990    0.0000 C   0  0  0  0  0  0  0  0  0  0  0  0
   -1.2135   -2.7256    0.0000 C   0  0  0  0  0  0  0  0  0  0  0  0
   -2.5838   -3.3357    0.0000 C   0  0  0  0  0  0  0  0  0  0  0  0
   -3.7974   -2.4540    0.0000 O   0  0  0  0  0  0  0  0  0  0  0  0
  1  2  1  0
  2  3  1  0
  3  4  1  0
  4  5  2  0
  5  6  1  0
  6  7  2  0
  7  8  1  0
  8  9  2  0
  9 10  1  0
 10 11  1  0
 11 12  1  0
 12 13  1  0
 13 14  1  0
 14 15  1  0
 15 16  1  0
 16 17  1  0
 13 18  1  0
 18 19  1  0
  7 20  1  0
 20 21  1  0
 20 22  1  0
 20 23  1  0
 23 24  1  0
 24 25  1  0
 25 26  2  0
 26 27  1  0
 27 28  1  0
 28 29  3  0
 27 30  2  0
 30 31  1  0
 31 32  2  0
 32 33  1  0
 33 34  1  0
 34 35  2  0
  9  4  1  0
 19 10  1  0
 33 23  2  0
 34  6  1  0
 17 14  1  0
 32 25  1  0
M  END
>  <Compound_ID>  (220) 
CHEMBL3974835

>  <Molecule Name>  (220) 
nan

>  <Molecular Weight>  (220) 
466.63

>  <AlogP>  (220) 
5.54

>  <Smiles>  (220) 
CCCc1cc2c(cc1N1CCN(C3CCC3)CC1)C(C)(C)c1[nH]c3cc(C#N)ccc3c1C2=O

>  <Standard Type>  (220) 
IC50

>  <Standard Relation>  (220) 
'='

>  <Standard Units>  (220) 
nM

>  <Standard Value>  (220) 
1.77

>  <Assay ChEMBL ID>  (220) 
CHEMBL3887074

>  <Assay Description>  (220) 
Inhibition Assay: ALK-inhibiting activity was measured by following an activity of inhibiting phosphorylation by biotinylated peptide (EGPWLEEEEEAYGWMDF). For the detection of phosphorylation of the biotinylated peptide, time-resolved fluorescence measurement was performed using an anti-phosphorylated tyrosine antibody labeled with europium cryptate and streptavidin conjugated to XL665, i.e., an allophycocyanin derivative.

>  <BAO Format ID>  (220) 
BAO_0000357

>  <BAO Label>  (220) 
single protein format

>  <Assay Organism>  (220) 
Homo sapiens

>  <Target ChEMBL ID>  (220) 
CHEMBL4247

>  <Target Name>  (220) 
ALK tyrosine kinase receptor

>  <Target Organism>  (220) 
Homo sapiens

>  <Target Type>  (220) 
SINGLE PROTEIN

>  <Document ChEMBL ID>  (220) 
CHEMBL3886150

>  <Source Description>  (220) 
BindingDB Database

>  <Document Journal>  (220) 
nan

>  <Document Year>  (220) 
2015.0

>  <Active>  (220) 
1.0

>  <bits>  (220) 
<rdkit.DataStructs.cDataStructs.ExplicitBitVect object at 0x000002422F188970>

>  <Group>  (220) 
G2

$$$$

     RDKit          2D

 31 35  0  0  0  0  0  0  0  0999 V2000
   -3.8536   -0.8075    0.0000 C   0  0  0  0  0  0  0  0  0  0  0  0
   -3.8536   -2.3075    0.0000 C   0  0  0  0  0  0  0  0  0  0  0  0
   -5.0672   -3.1891    0.0000 N   0  0  0  0  0  0  0  0  0  0  0  0
   -4.6036   -4.6157    0.0000 N   0  0  0  0  0  0  0  0  0  0  0  0
   -5.4853   -5.8293    0.0000 C   0  0  0  0  0  0  0  0  0  0  0  0
   -6.9771   -5.6725    0.0000 C   0  0  0  0  0  0  0  0  0  0  0  0
   -7.5872   -4.3021    0.0000 C   0  0  0  0  0  0  0  0  0  0  0  0
   -9.0790   -4.1454    0.0000 C   0  0  0  0  0  0  0  0  0  0  0  0
   -9.6891   -2.7750    0.0000 F   0  0  0  0  0  0  0  0  0  0  0  0
   -9.9607   -5.3589    0.0000 C   0  0  0  0  0  0  0  0  0  0  0  0
   -9.3506   -6.7292    0.0000 C   0  0  0  0  0  0  0  0  0  0  0  0
   -7.8588   -6.8860    0.0000 C   0  0  0  0  0  0  0  0  0  0  0  0
   -7.2487   -8.2563    0.0000 F   0  0  0  0  0  0  0  0  0  0  0  0
   -3.1036   -4.6157    0.0000 C   0  0  0  0  0  0  0  0  0  0  0  0
   -2.2220   -5.8293    0.0000 C   0  0  0  0  0  0  0  0  0  0  0  0
   -2.6401   -3.1891    0.0000 C   0  0  0  0  0  0  0  0  0  0  0  0
   -1.2135   -2.7256    0.0000 C   0  0  0  0  0  0  0  0  0  0  0  0
   -0.0000   -3.6073    0.0000 C   0  0  0  0  0  0  0  0  0  0  0  0
    1.2135   -2.7256    0.0000 N   0  0  0  0  0  0  0  0  0  0  0  0
    0.7500   -1.2990    0.0000 C   0  0  0  0  0  0  0  0  0  0  0  0
    1.5000    0.0000    0.0000 N   0  0  0  0  0  0  0  0  0  0  0  0
    0.7500    1.2990    0.0000 C   0  0  0  0  0  0  0  0  0  0  0  0
   -0.7500    1.2990    0.0000 C   0  0  0  0  0  0  0  0  0  0  0  0
   -1.5000    2.5981    0.0000 C   0  0  0  0  0  0  0  0  0  0  0  0
   -2.9918    2.7549    0.0000 C   0  0  0  0  0  0  0  0  0  0  0  0
   -3.3037    4.2221    0.0000 N   0  0  0  0  0  0  0  0  0  0  0  0
   -2.0046    4.9721    0.0000 N   0  0  0  0  0  0  0  0  0  0  0  0
   -1.8478    6.4639    0.0000 C   0  0  0  0  0  0  0  0  0  0  0  0
   -0.8899    3.9684    0.0000 C   0  0  0  0  0  0  0  0  0  0  0  0
   -1.5000    0.0000    0.0000 C   0  0  0  0  0  0  0  0  0  0  0  0
   -0.7500   -1.2990    0.0000 C   0  0  0  0  0  0  0  0  0  0  0  0
  1  2  1  0
  2  3  2  0
  3  4  1  0
  4  5  1  0
  5  6  1  0
  6  7  2  0
  7  8  1  0
  8  9  1  0
  8 10  2  0
 10 11  1  0
 11 12  2  0
 12 13  1  0
  4 14  1  0
 14 15  1  0
 14 16  2  0
 16 17  1  0
 17 18  2  0
 18 19  1  0
 19 20  1  0
 20 21  2  0
 21 22  1  0
 22 23  2  0
 23 24  1  0
 24 25  1  0
 25 26  2  0
 26 27  1  0
 27 28  1  0
 27 29  1  0
 23 30  1  0
 30 31  2  0
 16  2  1  0
 31 17  1  0
 12  6  1  0
 31 20  1  0
 29 24  2  0
M  END
>  <Compound_ID>  (221) 
CHEMBL2418748

>  <Molecule Name>  (221) 
nan

>  <Molecular Weight>  (221) 
418.45

>  <AlogP>  (221) 
4.77

>  <Smiles>  (221) 
Cc1nn(Cc2cc(F)ccc2F)c(C)c1-c1c[nH]c2ncc(-c3cnn(C)c3)cc12

>  <Standard Type>  (221) 
IC50

>  <Standard Relation>  (221) 
'='

>  <Standard Units>  (221) 
nM

>  <Standard Value>  (221) 
63.0

>  <Assay ChEMBL ID>  (221) 
CHEMBL2423641

>  <Assay Description>  (221) 
Inhibition of wild type human recombinant ALK after 30 mins by TR-FRET assay

>  <BAO Format ID>  (221) 
BAO_0000357

>  <BAO Label>  (221) 
single protein format

>  <Assay Organism>  (221) 
Homo sapiens

>  <Target ChEMBL ID>  (221) 
CHEMBL4247

>  <Target Name>  (221) 
ALK tyrosine kinase receptor

>  <Target Organism>  (221) 
Homo sapiens

>  <Target Type>  (221) 
SINGLE PROTEIN

>  <Document ChEMBL ID>  (221) 
CHEMBL2417505

>  <Source Description>  (221) 
Scientific Literature

>  <Document Journal>  (221) 
Bioorg Med Chem Lett

>  <Document Year>  (221) 
2013.0

>  <Active>  (221) 
1.0

>  <bits>  (221) 
<rdkit.DataStructs.cDataStructs.ExplicitBitVect object at 0x000002422F188890>

>  <Group>  (221) 
G2

$$$$

     RDKit          2D

 32 37  0  0  0  0  0  0  0  0999 V2000
   -8.2574    0.4549    0.0000 N   0  0  0  0  0  0  0  0  0  0  0  0
   -6.7656    0.6117    0.0000 C   0  0  0  0  0  0  0  0  0  0  0  0
   -5.8840   -0.6018    0.0000 O   0  0  0  0  0  0  0  0  0  0  0  0
   -6.1555    1.9820    0.0000 C   0  0  0  0  0  0  0  0  0  0  0  0
   -4.6883    2.2939    0.0000 C   0  0  0  0  0  0  0  0  0  0  0  0
   -3.5736    1.2902    0.0000 N   0  0  0  0  0  0  0  0  0  0  0  0
   -2.1470    1.7537    0.0000 C   0  0  0  0  0  0  0  0  0  0  0  0
   -1.8351    3.2209    0.0000 C   0  0  0  0  0  0  0  0  0  0  0  0
   -2.9499    4.2246    0.0000 Cl  0  0  0  0  0  0  0  0  0  0  0  0
   -0.4086    3.6844    0.0000 C   0  0  0  0  0  0  0  0  0  0  0  0
    0.7062    2.6807    0.0000 N   0  0  0  0  0  0  0  0  0  0  0  0
    0.3943    1.2135    0.0000 C   0  0  0  0  0  0  0  0  0  0  0  0
    1.2760    0.0000    0.0000 N   0  0  0  0  0  0  0  0  0  0  0  0
    0.3943   -1.2135    0.0000 C   0  0  0  0  0  0  0  0  0  0  0  0
    0.8578   -2.6401    0.0000 C   0  0  0  0  0  0  0  0  0  0  0  0
    2.2844   -3.1036    0.0000 C   0  0  0  0  0  0  0  0  0  0  0  0
    2.2844   -4.6036    0.0000 N   0  0  0  0  0  0  0  0  0  0  0  0
    0.8578   -5.0672    0.0000 N   0  0  0  0  0  0  0  0  0  0  0  0
    0.3943   -6.4937    0.0000 C   0  0  0  0  0  0  0  0  0  0  0  0
   -1.0729   -6.8056    0.0000 C   0  0  0  0  0  0  0  0  0  0  0  0
   -1.5364   -8.2322    0.0000 C   0  0  0  0  0  0  0  0  0  0  0  0
   -0.5328   -9.3469    0.0000 N   0  0  0  0  0  0  0  0  0  0  0  0
    0.9345   -9.0350    0.0000 C   0  0  0  0  0  0  0  0  0  0  0  0
    1.3980   -7.6085    0.0000 C   0  0  0  0  0  0  0  0  0  0  0  0
   -0.0239   -3.8536    0.0000 C   0  0  0  0  0  0  0  0  0  0  0  0
   -1.0323   -0.7500    0.0000 N   0  0  0  0  0  0  0  0  0  0  0  0
   -1.0323    0.7500    0.0000 C   0  0  0  0  0  0  0  0  0  0  0  0
   -4.5315    3.7856    0.0000 C   0  0  0  0  0  0  0  0  0  0  0  0
   -5.2815    5.0847    0.0000 C   0  0  0  0  0  0  0  0  0  0  0  0
   -6.7487    4.7728    0.0000 C   0  0  0  0  0  0  0  0  0  0  0  0
   -6.9055    3.2810    0.0000 C   0  0  0  0  0  0  0  0  0  0  0  0
   -5.5352    2.6709    0.0000 C   0  0  0  0  0  0  0  0  0  0  0  0
  1  2  1  0
  2  3  2  0
  4  2  1  1
  4  5  1  0
  5  6  1  1
  6  7  1  0
  7  8  1  0
  8  9  1  0
  8 10  2  0
 10 11  1  0
 11 12  2  0
 12 13  1  0
 13 14  1  0
 14 15  1  0
 15 16  1  0
 16 17  2  0
 17 18  1  0
 18 19  1  0
 19 20  1  0
 20 21  1  0
 21 22  1  0
 22 23  1  0
 23 24  1  0
 18 25  1  0
 14 26  2  0
 26 27  1  0
  5 28  1  0
 28 29  1  6
 29 30  2  0
 31 30  1  6
 31 32  1  0
 31  4  1  0
 27  7  2  0
 32 28  1  0
 27 12  1  0
 25 15  2  0
 24 19  1  0
M  END
>  <Compound_ID>  (222) 
CHEMBL3218853

>  <Molecule Name>  (222) 
nan

>  <Molecular Weight>  (222) 
452.95

>  <AlogP>  (222) 
2.49

>  <Smiles>  (222) 
NC(=O)[C@@H]1[C@H](Nc2c(Cl)cnc3[nH]c(-c4cnn(C5CCNCC5)c4)nc23)[C@H]2C=C[C@@H]1C2

>  <Standard Type>  (222) 
IC50

>  <Standard Relation>  (222) 
'='

>  <Standard Units>  (222) 
nM

>  <Standard Value>  (222) 
42.0

>  <Assay ChEMBL ID>  (222) 
CHEMBL3226250

>  <Assay Description>  (222) 
Inhibition of ALK (unknown origin)

>  <BAO Format ID>  (222) 
BAO_0000357

>  <BAO Label>  (222) 
single protein format

>  <Assay Organism>  (222) 
Homo sapiens

>  <Target ChEMBL ID>  (222) 
CHEMBL4247

>  <Target Name>  (222) 
ALK tyrosine kinase receptor

>  <Target Organism>  (222) 
Homo sapiens

>  <Target Type>  (222) 
SINGLE PROTEIN

>  <Document ChEMBL ID>  (222) 
CHEMBL3217622

>  <Source Description>  (222) 
Scientific Literature

>  <Document Journal>  (222) 
Medchemcomm

>  <Document Year>  (222) 
2012.0

>  <Active>  (222) 
1.0

>  <bits>  (222) 
<rdkit.DataStructs.cDataStructs.ExplicitBitVect object at 0x000002422F18A960>

>  <Group>  (222) 
G2

$$$$

     RDKit          2D

 41 45  0  0  0  0  0  0  0  0999 V2000
    5.7760   -2.5981    0.0000 C   0  0  0  0  0  0  0  0  0  0  0  0
    5.0260   -1.2990    0.0000 C   0  0  0  0  0  0  0  0  0  0  0  0
    3.5260   -1.2990    0.0000 O   0  0  0  0  0  0  0  0  0  0  0  0
    2.7760    0.0000    0.0000 C   0  0  0  0  0  0  0  0  0  0  0  0
    3.5260    1.2990    0.0000 O   0  0  0  0  0  0  0  0  0  0  0  0
    1.2760    0.0000    0.0000 C   0  0  0  0  0  0  0  0  0  0  0  0
    0.3943    1.2135    0.0000 C   0  0  0  0  0  0  0  0  0  0  0  0
   -1.0323    0.7500    0.0000 N   0  0  0  0  0  0  0  0  0  0  0  0
   -2.3313    1.5000    0.0000 C   0  0  0  0  0  0  0  0  0  0  0  0
   -2.3313    3.0000    0.0000 C   0  0  0  0  0  0  0  0  0  0  0  0
   -3.6304    3.7500    0.0000 C   0  0  0  0  0  0  0  0  0  0  0  0
   -3.6304    5.2500    0.0000 C   0  0  0  0  0  0  0  0  0  0  0  0
   -2.3313    6.0000    0.0000 Cl  0  0  0  0  0  0  0  0  0  0  0  0
   -4.9294    6.0000    0.0000 C   0  0  0  0  0  0  0  0  0  0  0  0
   -6.2284    5.2500    0.0000 C   0  0  0  0  0  0  0  0  0  0  0  0
   -6.2284    3.7500    0.0000 C   0  0  0  0  0  0  0  0  0  0  0  0
   -4.9294    3.0000    0.0000 C   0  0  0  0  0  0  0  0  0  0  0  0
   -4.9294    1.5000    0.0000 Cl  0  0  0  0  0  0  0  0  0  0  0  0
   -3.6304    0.7500    0.0000 N   0  0  0  0  0  0  0  0  0  0  0  0
   -3.6304   -0.7500    0.0000 C   0  0  0  0  0  0  0  0  0  0  0  0
   -4.9294   -1.5000    0.0000 N   0  0  0  0  0  0  0  0  0  0  0  0
   -6.2284   -0.7500    0.0000 C   0  0  0  0  0  0  0  0  0  0  0  0
   -6.2284    0.7500    0.0000 C   0  0  0  0  0  0  0  0  0  0  0  0
   -7.5275    1.5000    0.0000 C   0  0  0  0  0  0  0  0  0  0  0  0
   -8.8265    0.7500    0.0000 C   0  0  0  0  0  0  0  0  0  0  0  0
  -10.1256    1.5000    0.0000 N   0  0  0  0  0  0  0  0  0  0  0  0
  -10.1256    3.0000    0.0000 C   0  0  0  0  0  0  0  0  0  0  0  0
  -11.4246    3.7500    0.0000 C   0  0  0  0  0  0  0  0  0  0  0  0
  -12.7236    3.0000    0.0000 N   0  0  0  0  0  0  0  0  0  0  0  0
  -12.7236    1.5000    0.0000 C   0  0  0  0  0  0  0  0  0  0  0  0
  -11.4246    0.7500    0.0000 C   0  0  0  0  0  0  0  0  0  0  0  0
   -8.8265   -0.7500    0.0000 C   0  0  0  0  0  0  0  0  0  0  0  0
   -7.5275   -1.5000    0.0000 C   0  0  0  0  0  0  0  0  0  0  0  0
   -7.5275   -3.0000    0.0000 O   0  0  0  0  0  0  0  0  0  0  0  0
   -8.8265   -3.7500    0.0000 C   0  0  0  0  0  0  0  0  0  0  0  0
   -2.3313   -1.5000    0.0000 C   0  0  0  0  0  0  0  0  0  0  0  0
   -2.3313   -3.0000    0.0000 C   0  0  0  0  0  0  0  0  0  0  0  0
   -3.6304   -3.7500    0.0000 N   0  0  0  0  0  0  0  0  0  0  0  0
   -1.0323   -3.7500    0.0000 O   0  0  0  0  0  0  0  0  0  0  0  0
   -1.0323   -0.7500    0.0000 C   0  0  0  0  0  0  0  0  0  0  0  0
    0.3943   -1.2135    0.0000 N   0  0  0  0  0  0  0  0  0  0  0  0
  1  2  1  0
  2  3  1  0
  3  4  1  0
  4  5  2  0
  4  6  1  0
  6  7  2  0
  7  8  1  0
  8  9  1  0
  9 10  1  0
 10 11  1  0
 11 12  2  0
 12 13  1  0
 12 14  1  0
 14 15  2  0
 15 16  1  0
 16 17  2  0
 17 18  1  0
  9 19  2  0
 19 20  1  0
 20 21  1  0
 21 22  1  0
 22 23  2  0
 23 24  1  0
 24 25  2  0
 25 26  1  0
 26 27  1  0
 27 28  1  0
 28 29  1  0
 29 30  1  0
 30 31  1  0
 25 32  1  0
 32 33  2  0
 33 34  1  0
 34 35  1  0
 20 36  2  0
 36 37  1  0
 37 38  1  0
 37 39  2  0
 36 40  1  0
 40 41  2  0
 41  6  1  0
 40  8  1  0
 17 11  1  0
 33 22  1  0
 31 26  1  0
M  END
>  <Compound_ID>  (223) 
CHEMBL3965838

>  <Molecule Name>  (223) 
nan

>  <Molecular Weight>  (223) 
598.49

>  <AlogP>  (223) 
4.06

>  <Smiles>  (223) 
CCOC(=O)c1cn2c(Cc3c(Cl)cccc3Cl)nc(Nc3ccc(N4CCNCC4)cc3OC)c(C(N)=O)c2n1

>  <Standard Type>  (223) 
Ki

>  <Standard Relation>  (223) 
'='

>  <Standard Units>  (223) 
nM

>  <Standard Value>  (223) 
1.0

>  <Assay ChEMBL ID>  (223) 
CHEMBL3887723

>  <Assay Description>  (223) 
Enzyme Inhibition Assay: ALK kinase assays were conducted with the indicated final concentrations unless otherwise specified. In 384 well black plates (Axygen), 8 ul of compound (2% DMSO) was incubated with 8 ul Lck-peptide substrate (0.5 uM, biotin-Ahx-GAEEEIYAAFFA-COOH) and 8 ul of a mixture of ALK (3 nM, Millipore) and ATP (50 uM) in reaction buffer (50 mM Hepes, pH 7.4; 10 mM MgCl2; 2 mM MnCl2; 0.1 mM sodium orthovanadate; 0.01% BSA and 1 mM DTT (added fresh before assay) for 1 h at room temperature. Reactions were then quenched by the addition of 30 ul quench solution (streptavidin-allophycocyanin and Europium-cryptate PT66 monoclonal antibody in 40 mM Hepes, pH 7.4; 480 mM KF; 66 mM EDTA; 0.01% Tween-20; and 0.1% BSA) at room temperature. Plates were read 1 h after quenching on an Envision Multilaber Reader and IC50 values were calculated using a sigmoidal fit of the concentration/inhibition response curves. These values were converted to apparent Ki values.

>  <BAO Format ID>  (223) 
BAO_0000357

>  <BAO Label>  (223) 
single protein format

>  <Assay Organism>  (223) 
Homo sapiens

>  <Target ChEMBL ID>  (223) 
CHEMBL4247

>  <Target Name>  (223) 
ALK tyrosine kinase receptor

>  <Target Organism>  (223) 
Homo sapiens

>  <Target Type>  (223) 
SINGLE PROTEIN

>  <Document ChEMBL ID>  (223) 
CHEMBL3886424

>  <Source Description>  (223) 
BindingDB Database

>  <Document Journal>  (223) 
nan

>  <Document Year>  (223) 
2015.0

>  <Active>  (223) 
1.0

>  <bits>  (223) 
<rdkit.DataStructs.cDataStructs.ExplicitBitVect object at 0x000002422F18BB50>

>  <Group>  (223) 
G2

$$$$

     RDKit          2D

 36 40  0  0  0  0  0  0  0  0999 V2000
   -6.2940    7.2357    0.0000 C   0  0  0  0  0  0  0  0  0  0  0  0
   -5.1793    6.2320    0.0000 O   0  0  0  0  0  0  0  0  0  0  0  0
   -3.7527    6.6955    0.0000 C   0  0  0  0  0  0  0  0  0  0  0  0
   -3.4408    8.1628    0.0000 C   0  0  0  0  0  0  0  0  0  0  0  0
   -2.0143    8.6263    0.0000 C   0  0  0  0  0  0  0  0  0  0  0  0
   -1.7024   10.0935    0.0000 C   0  0  0  0  0  0  0  0  0  0  0  0
   -0.2758   10.5570    0.0000 C   0  0  0  0  0  0  0  0  0  0  0  0
    0.0361   12.0242    0.0000 C   0  0  0  0  0  0  0  0  0  0  0  0
   -1.0786   13.0279    0.0000 N   0  0  0  0  0  0  0  0  0  0  0  0
   -2.5052   12.5644    0.0000 C   0  0  0  0  0  0  0  0  0  0  0  0
   -2.8171   11.0972    0.0000 C   0  0  0  0  0  0  0  0  0  0  0  0
   -0.8995    7.6226    0.0000 C   0  0  0  0  0  0  0  0  0  0  0  0
   -1.2114    6.1554    0.0000 C   0  0  0  0  0  0  0  0  0  0  0  0
   -2.6380    5.6918    0.0000 C   0  0  0  0  0  0  0  0  0  0  0  0
   -2.9499    4.2246    0.0000 N   0  0  0  0  0  0  0  0  0  0  0  0
   -1.8351    3.2209    0.0000 C   0  0  0  0  0  0  0  0  0  0  0  0
   -0.4086    3.6844    0.0000 N   0  0  0  0  0  0  0  0  0  0  0  0
    0.7062    2.6807    0.0000 C   0  0  0  0  0  0  0  0  0  0  0  0
    2.1328    3.1443    0.0000 C   0  0  0  0  0  0  0  0  0  0  0  0
    2.4446    4.6115    0.0000 C   0  0  0  0  0  0  0  0  0  0  0  0
    3.8712    5.0750    0.0000 C   0  0  0  0  0  0  0  0  0  0  0  0
    4.1831    6.5422    0.0000 C   0  0  0  0  0  0  0  0  0  0  0  0
    3.0684    7.5459    0.0000 C   0  0  0  0  0  0  0  0  0  0  0  0
    1.6418    7.0824    0.0000 C   0  0  0  0  0  0  0  0  0  0  0  0
    0.5271    8.0861    0.0000 F   0  0  0  0  0  0  0  0  0  0  0  0
    1.3299    5.6152    0.0000 C   0  0  0  0  0  0  0  0  0  0  0  0
   -0.0967    5.1517    0.0000 F   0  0  0  0  0  0  0  0  0  0  0  0
    0.3943    1.2135    0.0000 N   0  0  0  0  0  0  0  0  0  0  0  0
    1.2760    0.0000    0.0000 C   0  0  0  0  0  0  0  0  0  0  0  0
    0.3943   -1.2135    0.0000 N   0  0  0  0  0  0  0  0  0  0  0  0
   -1.0323   -0.7500    0.0000 N   0  0  0  0  0  0  0  0  0  0  0  0
   -1.0323    0.7500    0.0000 C   0  0  0  0  0  0  0  0  0  0  0  0
   -2.1470    1.7537    0.0000 C   0  0  0  0  0  0  0  0  0  0  0  0
   -3.5736    1.2902    0.0000 C   0  0  0  0  0  0  0  0  0  0  0  0
   -4.6883    2.2939    0.0000 N   0  0  0  0  0  0  0  0  0  0  0  0
   -3.8855   -0.1771    0.0000 O   0  0  0  0  0  0  0  0  0  0  0  0
  1  2  1  0
  2  3  1  0
  3  4  2  0
  4  5  1  0
  5  6  1  0
  6  7  1  0
  7  8  1  0
  8  9  1  0
  9 10  1  0
 10 11  1  0
  5 12  2  0
 12 13  1  0
 13 14  2  0
 14 15  1  0
 15 16  1  0
 16 17  1  0
 17 18  2  0
 18 19  1  0
 19 20  1  0
 20 21  2  0
 21 22  1  0
 22 23  2  0
 23 24  1  0
 24 25  1  0
 24 26  2  0
 26 27  1  0
 18 28  1  0
 28 29  1  0
 29 30  2  0
 30 31  1  0
 31 32  2  0
 32 33  1  0
 33 34  1  0
 34 35  1  0
 34 36  2  0
 14  3  1  0
 33 16  2  0
 11  6  1  0
 26 20  1  0
 32 28  1  0
M  END
>  <Compound_ID>  (224) 
CHEMBL3964023

>  <Molecule Name>  (224) 
nan

>  <Molecular Weight>  (224) 
493.52

>  <AlogP>  (224) 
3.31

>  <Smiles>  (224) 
COc1cc(C2CCNCC2)ccc1Nc1nc(Cc2cccc(F)c2F)n2cnnc2c1C(N)=O

>  <Standard Type>  (224) 
Ki

>  <Standard Relation>  (224) 
'='

>  <Standard Units>  (224) 
nM

>  <Standard Value>  (224) 
6.0

>  <Assay ChEMBL ID>  (224) 
CHEMBL3887723

>  <Assay Description>  (224) 
Enzyme Inhibition Assay: ALK kinase assays were conducted with the indicated final concentrations unless otherwise specified. In 384 well black plates (Axygen), 8 ul of compound (2% DMSO) was incubated with 8 ul Lck-peptide substrate (0.5 uM, biotin-Ahx-GAEEEIYAAFFA-COOH) and 8 ul of a mixture of ALK (3 nM, Millipore) and ATP (50 uM) in reaction buffer (50 mM Hepes, pH 7.4; 10 mM MgCl2; 2 mM MnCl2; 0.1 mM sodium orthovanadate; 0.01% BSA and 1 mM DTT (added fresh before assay) for 1 h at room temperature. Reactions were then quenched by the addition of 30 ul quench solution (streptavidin-allophycocyanin and Europium-cryptate PT66 monoclonal antibody in 40 mM Hepes, pH 7.4; 480 mM KF; 66 mM EDTA; 0.01% Tween-20; and 0.1% BSA) at room temperature. Plates were read 1 h after quenching on an Envision Multilaber Reader and IC50 values were calculated using a sigmoidal fit of the concentration/inhibition response curves. These values were converted to apparent Ki values.

>  <BAO Format ID>  (224) 
BAO_0000357

>  <BAO Label>  (224) 
single protein format

>  <Assay Organism>  (224) 
Homo sapiens

>  <Target ChEMBL ID>  (224) 
CHEMBL4247

>  <Target Name>  (224) 
ALK tyrosine kinase receptor

>  <Target Organism>  (224) 
Homo sapiens

>  <Target Type>  (224) 
SINGLE PROTEIN

>  <Document ChEMBL ID>  (224) 
CHEMBL3886424

>  <Source Description>  (224) 
BindingDB Database

>  <Document Journal>  (224) 
nan

>  <Document Year>  (224) 
2015.0

>  <Active>  (224) 
1.0

>  <bits>  (224) 
<rdkit.DataStructs.cDataStructs.ExplicitBitVect object at 0x000002422F18AF10>

>  <Group>  (224) 
G2

$$$$

     RDKit          2D

 36 40  0  0  0  0  0  0  0  0999 V2000
  -10.5759   -3.0359    0.0000 C   0  0  0  0  0  0  0  0  0  0  0  0
   -9.4612   -4.0396    0.0000 C   0  0  0  0  0  0  0  0  0  0  0  0
   -8.0346   -3.5760    0.0000 O   0  0  0  0  0  0  0  0  0  0  0  0
   -6.9199   -4.5797    0.0000 C   0  0  0  0  0  0  0  0  0  0  0  0
   -7.2317   -6.0469    0.0000 O   0  0  0  0  0  0  0  0  0  0  0  0
   -5.4933   -4.1162    0.0000 C   0  0  0  0  0  0  0  0  0  0  0  0
   -5.1814   -2.6490    0.0000 C   0  0  0  0  0  0  0  0  0  0  0  0
   -3.7548   -2.1855    0.0000 C   0  0  0  0  0  0  0  0  0  0  0  0
   -2.6401   -3.1891    0.0000 C   0  0  0  0  0  0  0  0  0  0  0  0
   -1.2135   -2.7256    0.0000 N   0  0  0  0  0  0  0  0  0  0  0  0
   -0.0000   -3.6073    0.0000 C   0  0  0  0  0  0  0  0  0  0  0  0
   -0.0000   -5.1073    0.0000 N   0  0  0  0  0  0  0  0  0  0  0  0
    1.2990   -5.8573    0.0000 C   0  0  0  0  0  0  0  0  0  0  0  0
    2.5981   -5.1073    0.0000 O   0  0  0  0  0  0  0  0  0  0  0  0
    1.2990   -7.3573    0.0000 C   0  0  0  0  0  0  0  0  0  0  0  0
   -0.0000   -8.1073    0.0000 C   0  0  0  0  0  0  0  0  0  0  0  0
   -0.0000   -9.6073    0.0000 C   0  0  0  0  0  0  0  0  0  0  0  0
    1.2990  -10.3573    0.0000 C   0  0  0  0  0  0  0  0  0  0  0  0
    2.5981   -9.6073    0.0000 C   0  0  0  0  0  0  0  0  0  0  0  0
    2.5981   -8.1073    0.0000 C   0  0  0  0  0  0  0  0  0  0  0  0
    1.2135   -2.7256    0.0000 N   0  0  0  0  0  0  0  0  0  0  0  0
    0.7500   -1.2990    0.0000 C   0  0  0  0  0  0  0  0  0  0  0  0
    1.5000    0.0000    0.0000 C   0  0  0  0  0  0  0  0  0  0  0  0
    0.7500    1.2990    0.0000 C   0  0  0  0  0  0  0  0  0  0  0  0
   -0.7500    1.2990    0.0000 C   0  0  0  0  0  0  0  0  0  0  0  0
   -1.5000    2.5981    0.0000 C   0  0  0  0  0  0  0  0  0  0  0  0
   -0.7500    3.8971    0.0000 N   0  0  0  0  0  0  0  0  0  0  0  0
    0.7500    3.8971    0.0000 C   0  0  0  0  0  0  0  0  0  0  0  0
    1.5000    5.1962    0.0000 C   0  0  0  0  0  0  0  0  0  0  0  0
    0.7500    6.4952    0.0000 C   0  0  0  0  0  0  0  0  0  0  0  0
   -0.7500    6.4952    0.0000 C   0  0  0  0  0  0  0  0  0  0  0  0
   -1.5000    5.1962    0.0000 C   0  0  0  0  0  0  0  0  0  0  0  0
   -1.5000    0.0000    0.0000 C   0  0  0  0  0  0  0  0  0  0  0  0
   -0.7500   -1.2990    0.0000 C   0  0  0  0  0  0  0  0  0  0  0  0
   -2.9520   -4.6564    0.0000 C   0  0  0  0  0  0  0  0  0  0  0  0
   -4.3786   -5.1199    0.0000 C   0  0  0  0  0  0  0  0  0  0  0  0
  1  2  1  0
  2  3  1  0
  3  4  1  0
  4  5  2  0
  6  4  1  1
  6  7  1  0
  7  8  1  0
  8  9  1  0
  9 10  1  1
 10 11  1  0
 11 12  2  0
 12 13  1  0
 13 14  2  0
 13 15  1  0
 15 16  2  0
 16 17  1  0
 17 18  2  0
 18 19  1  0
 19 20  2  0
 11 21  1  0
 21 22  1  0
 22 23  2  0
 23 24  1  0
 24 25  2  0
 25 26  1  0
 26 27  1  0
 27 28  1  0
 28 29  1  0
 29 30  1  0
 30 31  1  0
 31 32  1  0
 25 33  1  0
 33 34  2  0
  9 35  1  0
 35 36  1  0
 36  6  1  0
 34 10  1  0
 20 15  1  0
 34 22  1  0
 32 27  1  0
M  END
>  <Compound_ID>  (225) 
CHEMBL2172324

>  <Molecule Name>  (225) 
nan

>  <Molecular Weight>  (225) 
488.63

>  <AlogP>  (225) 
4.99

>  <Smiles>  (225) 
CCOC(=O)[C@H]1CC[C@@H](n2/c(=N/C(=O)c3ccccc3)[nH]c3ccc(CN4CCCCC4)cc32)CC1

>  <Standard Type>  (225) 
IC50

>  <Standard Relation>  (225) 
'='

>  <Standard Units>  (225) 
nM

>  <Standard Value>  (225) 
1.0

>  <Assay ChEMBL ID>  (225) 
CHEMBL2176371

>  <Assay Description>  (225) 
Inhibition of ALK enzyme

>  <BAO Format ID>  (225) 
BAO_0000357

>  <BAO Label>  (225) 
single protein format

>  <Assay Organism>  (225) 
None

>  <Target ChEMBL ID>  (225) 
CHEMBL4247

>  <Target Name>  (225) 
ALK tyrosine kinase receptor

>  <Target Organism>  (225) 
Homo sapiens

>  <Target Type>  (225) 
SINGLE PROTEIN

>  <Document ChEMBL ID>  (225) 
CHEMBL2169770

>  <Source Description>  (225) 
Scientific Literature

>  <Document Journal>  (225) 
J Med Chem

>  <Document Year>  (225) 
2012.0

>  <Active>  (225) 
1.0

>  <bits>  (225) 
<rdkit.DataStructs.cDataStructs.ExplicitBitVect object at 0x000002422F18AEA0>

>  <Group>  (225) 
G2

$$$$

     RDKit          2D

 34 39  0  0  0  0  0  0  0  0999 V2000
   -6.8516   -6.6578    0.0000 C   0  0  0  0  0  0  0  0  0  0  0  0
   -5.6381   -7.5395    0.0000 C   0  0  0  0  0  0  0  0  0  0  0  0
   -4.2677   -6.9294    0.0000 C   0  0  0  0  0  0  0  0  0  0  0  0
   -4.1110   -5.4376    0.0000 C   0  0  0  0  0  0  0  0  0  0  0  0
   -2.7406   -4.8275    0.0000 C   0  0  0  0  0  0  0  0  0  0  0  0
   -1.5271   -5.7092    0.0000 C   0  0  0  0  0  0  0  0  0  0  0  0
   -1.6839   -7.2010    0.0000 C   0  0  0  0  0  0  0  0  0  0  0  0
   -3.0542   -7.8111    0.0000 C   0  0  0  0  0  0  0  0  0  0  0  0
   -3.2110   -9.3029    0.0000 N   0  0  0  0  0  0  0  0  0  0  0  0
   -4.5813   -9.9130    0.0000 C   0  0  0  0  0  0  0  0  0  0  0  0
   -4.7381  -11.4047    0.0000 C   0  0  0  0  0  0  0  0  0  0  0  0
   -3.5246  -12.2864    0.0000 N   0  0  0  0  0  0  0  0  0  0  0  0
   -3.6814  -13.7782    0.0000 C   0  0  0  0  0  0  0  0  0  0  0  0
   -4.8471  -14.7222    0.0000 C   0  0  0  0  0  0  0  0  0  0  0  0
   -3.9031  -15.8879    0.0000 C   0  0  0  0  0  0  0  0  0  0  0  0
   -2.7374  -14.9439    0.0000 C   0  0  0  0  0  0  0  0  0  0  0  0
   -2.1543  -11.6763    0.0000 C   0  0  0  0  0  0  0  0  0  0  0  0
   -1.9975  -10.1845    0.0000 C   0  0  0  0  0  0  0  0  0  0  0  0
   -0.1568   -5.0991    0.0000 C   0  0  0  0  0  0  0  0  0  0  0  0
    1.3396   -4.9944    0.0000 C   0  0  0  0  0  0  0  0  0  0  0  0
    0.2061   -6.5545    0.0000 C   0  0  0  0  0  0  0  0  0  0  0  0
   -0.0000   -3.6073    0.0000 C   0  0  0  0  0  0  0  0  0  0  0  0
    1.2135   -2.7256    0.0000 N   0  0  0  0  0  0  0  0  0  0  0  0
    0.7500   -1.2990    0.0000 C   0  0  0  0  0  0  0  0  0  0  0  0
    1.5000    0.0000    0.0000 N   0  0  0  0  0  0  0  0  0  0  0  0
    0.7500    1.2990    0.0000 C   0  0  0  0  0  0  0  0  0  0  0  0
    1.5000    2.5981    0.0000 C   0  0  0  0  0  0  0  0  0  0  0  0
    2.2500    3.8971    0.0000 N   0  0  0  0  0  0  0  0  0  0  0  0
   -0.7500    1.2990    0.0000 C   0  0  0  0  0  0  0  0  0  0  0  0
   -1.5000    0.0000    0.0000 C   0  0  0  0  0  0  0  0  0  0  0  0
   -0.7500   -1.2990    0.0000 C   0  0  0  0  0  0  0  0  0  0  0  0
   -1.2135   -2.7256    0.0000 C   0  0  0  0  0  0  0  0  0  0  0  0
   -2.5838   -3.3357    0.0000 C   0  0  0  0  0  0  0  0  0  0  0  0
   -3.7974   -2.4540    0.0000 O   0  0  0  0  0  0  0  0  0  0  0  0
  1  2  1  0
  2  3  1  0
  3  4  2  0
  4  5  1  0
  5  6  2  0
  6  7  1  0
  7  8  2  0
  8  9  1  0
  9 10  1  0
 10 11  1  0
 11 12  1  0
 12 13  1  0
 13 14  1  0
 14 15  1  0
 15 16  1  0
 12 17  1  0
 17 18  1  0
  6 19  1  0
 19 20  1  0
 19 21  1  0
 19 22  1  0
 22 23  1  0
 23 24  1  0
 24 25  2  0
 25 26  1  0
 26 27  1  0
 27 28  3  0
 26 29  2  0
 29 30  1  0
 30 31  2  0
 31 32  1  0
 32 33  1  0
 33 34  2  0
  8  3  1  0
 18  9  1  0
 32 22  2  0
 33  5  1  0
 16 13  1  0
 31 24  1  0
M  END
>  <Compound_ID>  (226) 
CHEMBL3890509

>  <Molecule Name>  (226) 
nan

>  <Molecular Weight>  (226) 
453.59

>  <AlogP>  (226) 
4.54

>  <Smiles>  (226) 
CCc1cc2c(cc1N1CCN(C3CCC3)CC1)C(C)(C)c1[nH]c3nc(C#N)ccc3c1C2=O

>  <Standard Type>  (226) 
IC50

>  <Standard Relation>  (226) 
'='

>  <Standard Units>  (226) 
nM

>  <Standard Value>  (226) 
1.837

>  <Assay ChEMBL ID>  (226) 
CHEMBL3887074

>  <Assay Description>  (226) 
Inhibition Assay: ALK-inhibiting activity was measured by following an activity of inhibiting phosphorylation by biotinylated peptide (EGPWLEEEEEAYGWMDF). For the detection of phosphorylation of the biotinylated peptide, time-resolved fluorescence measurement was performed using an anti-phosphorylated tyrosine antibody labeled with europium cryptate and streptavidin conjugated to XL665, i.e., an allophycocyanin derivative.

>  <BAO Format ID>  (226) 
BAO_0000357

>  <BAO Label>  (226) 
single protein format

>  <Assay Organism>  (226) 
Homo sapiens

>  <Target ChEMBL ID>  (226) 
CHEMBL4247

>  <Target Name>  (226) 
ALK tyrosine kinase receptor

>  <Target Organism>  (226) 
Homo sapiens

>  <Target Type>  (226) 
SINGLE PROTEIN

>  <Document ChEMBL ID>  (226) 
CHEMBL3886150

>  <Source Description>  (226) 
BindingDB Database

>  <Document Journal>  (226) 
nan

>  <Document Year>  (226) 
2015.0

>  <Active>  (226) 
1.0

>  <bits>  (226) 
<rdkit.DataStructs.cDataStructs.ExplicitBitVect object at 0x000002422F188040>

>  <Group>  (226) 
G2

$$$$

     RDKit          2D

 37 42  0  0  0  0  0  0  0  0999 V2000
   -6.8516   -6.6578    0.0000 C   0  0  0  0  0  0  0  0  0  0  0  0
   -5.6381   -7.5395    0.0000 C   0  0  0  0  0  0  0  0  0  0  0  0
   -4.2677   -6.9294    0.0000 C   0  0  0  0  0  0  0  0  0  0  0  0
   -4.1110   -5.4376    0.0000 C   0  0  0  0  0  0  0  0  0  0  0  0
   -2.7406   -4.8275    0.0000 C   0  0  0  0  0  0  0  0  0  0  0  0
   -1.5271   -5.7092    0.0000 C   0  0  0  0  0  0  0  0  0  0  0  0
   -1.6839   -7.2010    0.0000 C   0  0  0  0  0  0  0  0  0  0  0  0
   -3.0542   -7.8111    0.0000 C   0  0  0  0  0  0  0  0  0  0  0  0
   -3.2110   -9.3029    0.0000 N   0  0  0  0  0  0  0  0  0  0  0  0
   -1.9975  -10.1845    0.0000 C   0  0  0  0  0  0  0  0  0  0  0  0
   -0.6272   -9.5744    0.0000 O   0  0  0  0  0  0  0  0  0  0  0  0
   -2.1543  -11.6763    0.0000 C   0  0  0  0  0  0  0  0  0  0  0  0
   -0.9408  -12.5580    0.0000 N   0  0  0  0  0  0  0  0  0  0  0  0
    0.4858  -12.0945    0.0000 C   0  0  0  0  0  0  0  0  0  0  0  0
    1.3675  -13.3080    0.0000 C   0  0  0  0  0  0  0  0  0  0  0  0
    2.7941  -13.7715    0.0000 C   0  0  0  0  0  0  0  0  0  0  0  0
    2.7941  -15.2715    0.0000 N   0  0  0  0  0  0  0  0  0  0  0  0
    4.0076  -16.1532    0.0000 C   0  0  0  0  0  0  0  0  0  0  0  0
    1.3675  -15.7350    0.0000 C   0  0  0  0  0  0  0  0  0  0  0  0
    0.4858  -14.5215    0.0000 C   0  0  0  0  0  0  0  0  0  0  0  0
   -0.9408  -14.0580    0.0000 C   0  0  0  0  0  0  0  0  0  0  0  0
   -0.1568   -5.0991    0.0000 C   0  0  0  0  0  0  0  0  0  0  0  0
    1.3396   -4.9944    0.0000 C   0  0  0  0  0  0  0  0  0  0  0  0
    0.2061   -6.5545    0.0000 C   0  0  0  0  0  0  0  0  0  0  0  0
   -0.0000   -3.6073    0.0000 C   0  0  0  0  0  0  0  0  0  0  0  0
    1.2135   -2.7256    0.0000 N   0  0  0  0  0  0  0  0  0  0  0  0
    0.7500   -1.2990    0.0000 C   0  0  0  0  0  0  0  0  0  0  0  0
    1.5000    0.0000    0.0000 C   0  0  0  0  0  0  0  0  0  0  0  0
    0.7500    1.2990    0.0000 C   0  0  0  0  0  0  0  0  0  0  0  0
    1.5000    2.5981    0.0000 C   0  0  0  0  0  0  0  0  0  0  0  0
    2.2500    3.8971    0.0000 N   0  0  0  0  0  0  0  0  0  0  0  0
   -0.7500    1.2990    0.0000 C   0  0  0  0  0  0  0  0  0  0  0  0
   -1.5000    0.0000    0.0000 C   0  0  0  0  0  0  0  0  0  0  0  0
   -0.7500   -1.2990    0.0000 C   0  0  0  0  0  0  0  0  0  0  0  0
   -1.2135   -2.7256    0.0000 C   0  0  0  0  0  0  0  0  0  0  0  0
   -2.5838   -3.3357    0.0000 C   0  0  0  0  0  0  0  0  0  0  0  0
   -3.7974   -2.4540    0.0000 O   0  0  0  0  0  0  0  0  0  0  0  0
  1  2  1  0
  2  3  1  0
  3  4  2  0
  4  5  1  0
  5  6  2  0
  6  7  1  0
  7  8  2  0
  8  9  1  0
  9 10  1  0
 10 11  2  0
 10 12  1  0
 12 13  1  0
 13 14  1  0
 14 15  1  0
 15 16  1  0
 16 17  1  0
 17 18  1  0
 17 19  1  0
 19 20  1  0
 20 21  1  0
  6 22  1  0
 22 23  1  0
 22 24  1  0
 22 25  1  0
 25 26  1  0
 26 27  1  0
 27 28  2  0
 28 29  1  0
 29 30  1  0
 30 31  3  0
 29 32  2  0
 32 33  1  0
 33 34  2  0
 34 35  1  0
 35 36  1  0
 36 37  2  0
  8  3  1  0
 21 13  1  0
 35 25  2  0
 36  5  1  0
 20 15  1  0
 34 27  1  0
M  END
>  <Compound_ID>  (227) 
CHEMBL3735802

>  <Molecule Name>  (227) 
nan

>  <Molecular Weight>  (227) 
495.63

>  <AlogP>  (227) 
3.90

>  <Smiles>  (227) 
CCc1cc2c(cc1NC(=O)CN1CC3CN(C)CC3C1)C(C)(C)c1[nH]c3cc(C#N)ccc3c1C2=O

>  <Standard Type>  (227) 
IC50

>  <Standard Relation>  (227) 
'='

>  <Standard Units>  (227) 
nM

>  <Standard Value>  (227) 
24.0

>  <Assay ChEMBL ID>  (227) 
CHEMBL3738493

>  <Assay Description>  (227) 
Inhibition of recombinant ALK (unknown origin) using poly (Glu, Tyr)4:1 substrate incubated for 60 mins by ELISA

>  <BAO Format ID>  (227) 
BAO_0000357

>  <BAO Label>  (227) 
single protein format

>  <Assay Organism>  (227) 
Homo sapiens

>  <Target ChEMBL ID>  (227) 
CHEMBL4247

>  <Target Name>  (227) 
ALK tyrosine kinase receptor

>  <Target Organism>  (227) 
Homo sapiens

>  <Target Type>  (227) 
SINGLE PROTEIN

>  <Document ChEMBL ID>  (227) 
CHEMBL3734710

>  <Source Description>  (227) 
Scientific Literature

>  <Document Journal>  (227) 
Eur J Med Chem

>  <Document Year>  (227) 
2015.0

>  <Active>  (227) 
1.0

>  <bits>  (227) 
<rdkit.DataStructs.cDataStructs.ExplicitBitVect object at 0x000002422F18AC70>

>  <Group>  (227) 
G2

$$$$

     RDKit          2D

 36 41  0  0  0  0  0  0  0  0999 V2000
    2.6491   -3.5623    0.0000 C   0  0  0  0  0  0  0  0  0  0  0  0
    1.5000   -2.5981    0.0000 C   0  0  0  0  0  0  0  0  0  0  0  0
    2.6491   -1.6339    0.0000 C   0  0  0  0  0  0  0  0  0  0  0  0
    0.7500   -1.2990    0.0000 C   0  0  0  0  0  0  0  0  0  0  0  0
    1.5000    0.0000    0.0000 C   0  0  0  0  0  0  0  0  0  0  0  0
    0.7500    1.2990    0.0000 C   0  0  0  0  0  0  0  0  0  0  0  0
    1.5000    2.5981    0.0000 C   0  0  0  0  0  0  0  0  0  0  0  0
    3.0000    2.5981    0.0000 C   0  0  0  0  0  0  0  0  0  0  0  0
    3.7500    3.8971    0.0000 C   0  0  0  0  0  0  0  0  0  0  0  0
    3.0000    5.1962    0.0000 N   0  0  0  0  0  0  0  0  0  0  0  0
    3.7500    6.4952    0.0000 C   0  0  0  0  0  0  0  0  0  0  0  0
    3.0000    7.7942    0.0000 O   0  0  0  0  0  0  0  0  0  0  0  0
    5.2500    6.4952    0.0000 C   0  0  0  0  0  0  0  0  0  0  0  0
    6.0000    5.1962    0.0000 C   0  0  0  0  0  0  0  0  0  0  0  0
    7.5000    5.1962    0.0000 O   0  0  0  0  0  0  0  0  0  0  0  0
    8.2500    6.4952    0.0000 C   0  0  0  0  0  0  0  0  0  0  0  0
    7.5000    7.7942    0.0000 C   0  0  0  0  0  0  0  0  0  0  0  0
    6.0000    7.7942    0.0000 N   0  0  0  0  0  0  0  0  0  0  0  0
    1.5000    5.1962    0.0000 C   0  0  0  0  0  0  0  0  0  0  0  0
    0.7500    3.8971    0.0000 C   0  0  0  0  0  0  0  0  0  0  0  0
   -0.7500    1.2990    0.0000 C   0  0  0  0  0  0  0  0  0  0  0  0
   -1.5000    0.0000    0.0000 C   0  0  0  0  0  0  0  0  0  0  0  0
   -0.7500   -1.2990    0.0000 C   0  0  0  0  0  0  0  0  0  0  0  0
   -1.5000   -2.5981    0.0000 C   0  0  0  0  0  0  0  0  0  0  0  0
   -3.0000   -2.5981    0.0000 O   0  0  0  0  0  0  0  0  0  0  0  0
   -0.7500   -3.8971    0.0000 C   0  0  0  0  0  0  0  0  0  0  0  0
    0.7500   -3.8971    0.0000 C   0  0  0  0  0  0  0  0  0  0  0  0
    1.2135   -5.3237    0.0000 N   0  0  0  0  0  0  0  0  0  0  0  0
    0.0000   -6.2054    0.0000 C   0  0  0  0  0  0  0  0  0  0  0  0
   -0.1568   -7.6972    0.0000 C   0  0  0  0  0  0  0  0  0  0  0  0
   -1.5271   -8.3073    0.0000 C   0  0  0  0  0  0  0  0  0  0  0  0
   -1.6839   -9.7990    0.0000 C   0  0  0  0  0  0  0  0  0  0  0  0
   -1.8407  -11.2908    0.0000 N   0  0  0  0  0  0  0  0  0  0  0  0
   -2.7406   -7.4256    0.0000 C   0  0  0  0  0  0  0  0  0  0  0  0
   -2.5838   -5.9338    0.0000 C   0  0  0  0  0  0  0  0  0  0  0  0
   -1.2135   -5.3237    0.0000 C   0  0  0  0  0  0  0  0  0  0  0  0
  1  2  1  0
  2  3  1  0
  2  4  1  0
  4  5  2  0
  5  6  1  0
  6  7  1  0
  7  8  1  0
  8  9  1  0
  9 10  1  0
 10 11  1  0
 11 12  2  0
 11 13  1  0
 13 14  1  0
 14 15  1  0
 15 16  1  0
 16 17  1  0
 17 18  1  0
 10 19  1  0
 19 20  1  0
  6 21  2  0
 21 22  1  0
 22 23  2  0
 23 24  1  0
 24 25  2  0
 24 26  1  0
 26 27  2  0
 27 28  1  0
 28 29  1  0
 29 30  2  0
 30 31  1  0
 31 32  1  0
 32 33  3  0
 31 34  2  0
 34 35  1  0
 35 36  2  0
 27  2  1  0
 36 29  1  0
 23  4  1  0
 36 26  1  0
 20  7  1  0
 18 13  1  0
M  END
>  <Compound_ID>  (228) 
CHEMBL3735587

>  <Molecule Name>  (228) 
nan

>  <Molecular Weight>  (228) 
482.58

>  <AlogP>  (228) 
3.60

>  <Smiles>  (228) 
CC1(C)c2cc(C3CCN(C(=O)C4COCCN4)CC3)ccc2C(=O)c2c1[nH]c1cc(C#N)ccc21

>  <Standard Type>  (228) 
IC50

>  <Standard Relation>  (228) 
'='

>  <Standard Units>  (228) 
nM

>  <Standard Value>  (228) 
15.5

>  <Assay ChEMBL ID>  (228) 
CHEMBL3738493

>  <Assay Description>  (228) 
Inhibition of recombinant ALK (unknown origin) using poly (Glu, Tyr)4:1 substrate incubated for 60 mins by ELISA

>  <BAO Format ID>  (228) 
BAO_0000357

>  <BAO Label>  (228) 
single protein format

>  <Assay Organism>  (228) 
Homo sapiens

>  <Target ChEMBL ID>  (228) 
CHEMBL4247

>  <Target Name>  (228) 
ALK tyrosine kinase receptor

>  <Target Organism>  (228) 
Homo sapiens

>  <Target Type>  (228) 
SINGLE PROTEIN

>  <Document ChEMBL ID>  (228) 
CHEMBL3734710

>  <Source Description>  (228) 
Scientific Literature

>  <Document Journal>  (228) 
Eur J Med Chem

>  <Document Year>  (228) 
2015.0

>  <Active>  (228) 
1.0

>  <bits>  (228) 
<rdkit.DataStructs.cDataStructs.ExplicitBitVect object at 0x000002422F18AF80>

>  <Group>  (228) 
G2

$$$$

     RDKit          2D

 38 42  0  0  0  0  0  0  0  0999 V2000
  -10.5759   -3.0359    0.0000 C   0  0  0  0  0  0  0  0  0  0  0  0
   -9.4612   -4.0396    0.0000 C   0  0  0  0  0  0  0  0  0  0  0  0
   -9.7730   -5.5068    0.0000 C   0  0  0  0  0  0  0  0  0  0  0  0
   -8.0346   -3.5760    0.0000 N   0  0  0  0  0  0  0  0  0  0  0  0
   -6.9199   -4.5797    0.0000 C   0  0  0  0  0  0  0  0  0  0  0  0
   -7.2317   -6.0469    0.0000 O   0  0  0  0  0  0  0  0  0  0  0  0
   -5.4933   -4.1162    0.0000 C   0  0  0  0  0  0  0  0  0  0  0  0
   -5.1814   -2.6490    0.0000 C   0  0  0  0  0  0  0  0  0  0  0  0
   -3.7548   -2.1855    0.0000 C   0  0  0  0  0  0  0  0  0  0  0  0
   -2.6401   -3.1891    0.0000 C   0  0  0  0  0  0  0  0  0  0  0  0
   -1.2135   -2.7256    0.0000 N   0  0  0  0  0  0  0  0  0  0  0  0
   -0.0000   -3.6073    0.0000 C   0  0  0  0  0  0  0  0  0  0  0  0
   -0.0000   -5.1073    0.0000 N   0  0  0  0  0  0  0  0  0  0  0  0
    1.2990   -5.8573    0.0000 C   0  0  0  0  0  0  0  0  0  0  0  0
    2.5981   -5.1073    0.0000 O   0  0  0  0  0  0  0  0  0  0  0  0
    1.2990   -7.3573    0.0000 C   0  0  0  0  0  0  0  0  0  0  0  0
   -0.0000   -8.1073    0.0000 C   0  0  0  0  0  0  0  0  0  0  0  0
   -0.0000   -9.6073    0.0000 C   0  0  0  0  0  0  0  0  0  0  0  0
    1.2990  -10.3573    0.0000 C   0  0  0  0  0  0  0  0  0  0  0  0
    1.2990  -11.8573    0.0000 F   0  0  0  0  0  0  0  0  0  0  0  0
    2.5981   -9.6073    0.0000 C   0  0  0  0  0  0  0  0  0  0  0  0
    2.5981   -8.1073    0.0000 C   0  0  0  0  0  0  0  0  0  0  0  0
    1.2135   -2.7256    0.0000 N   0  0  0  0  0  0  0  0  0  0  0  0
    0.7500   -1.2990    0.0000 C   0  0  0  0  0  0  0  0  0  0  0  0
    1.5000    0.0000    0.0000 C   0  0  0  0  0  0  0  0  0  0  0  0
    0.7500    1.2990    0.0000 C   0  0  0  0  0  0  0  0  0  0  0  0
   -0.7500    1.2990    0.0000 C   0  0  0  0  0  0  0  0  0  0  0  0
   -1.5000    2.5981    0.0000 C   0  0  0  0  0  0  0  0  0  0  0  0
   -0.7500    3.8971    0.0000 N   0  0  0  0  0  0  0  0  0  0  0  0
    0.7500    3.8971    0.0000 C   0  0  0  0  0  0  0  0  0  0  0  0
    1.5000    5.1962    0.0000 C   0  0  0  0  0  0  0  0  0  0  0  0
    0.7500    6.4952    0.0000 N   0  0  0  0  0  0  0  0  0  0  0  0
   -0.7500    6.4952    0.0000 C   0  0  0  0  0  0  0  0  0  0  0  0
   -1.5000    5.1962    0.0000 C   0  0  0  0  0  0  0  0  0  0  0  0
   -1.5000    0.0000    0.0000 C   0  0  0  0  0  0  0  0  0  0  0  0
   -0.7500   -1.2990    0.0000 C   0  0  0  0  0  0  0  0  0  0  0  0
   -2.9520   -4.6564    0.0000 C   0  0  0  0  0  0  0  0  0  0  0  0
   -4.3786   -5.1199    0.0000 C   0  0  0  0  0  0  0  0  0  0  0  0
  1  2  1  0
  2  3  1  0
  2  4  1  0
  4  5  1  0
  5  6  2  0
  7  5  1  1
  7  8  1  0
  8  9  1  0
  9 10  1  0
 10 11  1  1
 11 12  1  0
 12 13  2  0
 13 14  1  0
 14 15  2  0
 14 16  1  0
 16 17  2  0
 17 18  1  0
 18 19  2  0
 19 20  1  0
 19 21  1  0
 21 22  2  0
 12 23  1  0
 23 24  1  0
 24 25  2  0
 25 26  1  0
 26 27  2  0
 27 28  1  0
 28 29  1  0
 29 30  1  0
 30 31  1  0
 31 32  1  0
 32 33  1  0
 33 34  1  0
 27 35  1  0
 35 36  2  0
 10 37  1  0
 37 38  1  0
 38  7  1  0
 36 11  1  0
 22 16  1  0
 36 24  1  0
 34 29  1  0
M  END
>  <Compound_ID>  (229) 
CHEMBL2172333

>  <Molecule Name>  (229) 
nan

>  <Molecular Weight>  (229) 
520.65

>  <AlogP>  (229) 
3.51

>  <Smiles>  (229) 
CC(C)NC(=O)[C@H]1CC[C@@H](n2/c(=N/C(=O)c3ccc(F)cc3)[nH]c3ccc(CN4CCNCC4)cc32)CC1

>  <Standard Type>  (229) 
IC50

>  <Standard Relation>  (229) 
'='

>  <Standard Units>  (229) 
nM

>  <Standard Value>  (229) 
1.6

>  <Assay ChEMBL ID>  (229) 
CHEMBL2176371

>  <Assay Description>  (229) 
Inhibition of ALK enzyme

>  <BAO Format ID>  (229) 
BAO_0000357

>  <BAO Label>  (229) 
single protein format

>  <Assay Organism>  (229) 
None

>  <Target ChEMBL ID>  (229) 
CHEMBL4247

>  <Target Name>  (229) 
ALK tyrosine kinase receptor

>  <Target Organism>  (229) 
Homo sapiens

>  <Target Type>  (229) 
SINGLE PROTEIN

>  <Document ChEMBL ID>  (229) 
CHEMBL2169770

>  <Source Description>  (229) 
Scientific Literature

>  <Document Journal>  (229) 
J Med Chem

>  <Document Year>  (229) 
2012.0

>  <Active>  (229) 
1.0

>  <bits>  (229) 
<rdkit.DataStructs.cDataStructs.ExplicitBitVect object at 0x000002422F188D60>

>  <Group>  (229) 
G2

$$$$

     RDKit          2D

 36 40  0  0  0  0  0  0  0  0999 V2000
   -6.2940    7.2357    0.0000 C   0  0  0  0  0  0  0  0  0  0  0  0
   -5.1793    6.2320    0.0000 O   0  0  0  0  0  0  0  0  0  0  0  0
   -3.7527    6.6955    0.0000 C   0  0  0  0  0  0  0  0  0  0  0  0
   -3.4408    8.1628    0.0000 C   0  0  0  0  0  0  0  0  0  0  0  0
   -2.0143    8.6263    0.0000 C   0  0  0  0  0  0  0  0  0  0  0  0
   -1.7024   10.0935    0.0000 C   0  0  0  0  0  0  0  0  0  0  0  0
   -0.2758   10.5570    0.0000 N   0  0  0  0  0  0  0  0  0  0  0  0
    0.1877   11.9836    0.0000 C   0  0  0  0  0  0  0  0  0  0  0  0
    1.6877   11.9836    0.0000 C   0  0  0  0  0  0  0  0  0  0  0  0
    2.1513   10.5570    0.0000 C   0  0  0  0  0  0  0  0  0  0  0  0
    0.9377    9.6753    0.0000 C   0  0  0  0  0  0  0  0  0  0  0  0
   -0.8995    7.6226    0.0000 C   0  0  0  0  0  0  0  0  0  0  0  0
   -1.2114    6.1554    0.0000 C   0  0  0  0  0  0  0  0  0  0  0  0
   -2.6380    5.6918    0.0000 C   0  0  0  0  0  0  0  0  0  0  0  0
   -2.9499    4.2246    0.0000 N   0  0  0  0  0  0  0  0  0  0  0  0
   -1.8351    3.2209    0.0000 C   0  0  0  0  0  0  0  0  0  0  0  0
   -0.4086    3.6844    0.0000 N   0  0  0  0  0  0  0  0  0  0  0  0
    0.7062    2.6807    0.0000 C   0  0  0  0  0  0  0  0  0  0  0  0
    2.1328    3.1443    0.0000 C   0  0  0  0  0  0  0  0  0  0  0  0
    2.4446    4.6115    0.0000 C   0  0  0  0  0  0  0  0  0  0  0  0
    3.8712    5.0750    0.0000 C   0  0  0  0  0  0  0  0  0  0  0  0
    4.9859    4.0713    0.0000 Cl  0  0  0  0  0  0  0  0  0  0  0  0
    4.1831    6.5422    0.0000 C   0  0  0  0  0  0  0  0  0  0  0  0
    3.0684    7.5459    0.0000 C   0  0  0  0  0  0  0  0  0  0  0  0
    1.6418    7.0824    0.0000 C   0  0  0  0  0  0  0  0  0  0  0  0
    1.3299    5.6152    0.0000 C   0  0  0  0  0  0  0  0  0  0  0  0
   -0.0967    5.1517    0.0000 Cl  0  0  0  0  0  0  0  0  0  0  0  0
    0.3943    1.2135    0.0000 C   0  0  0  0  0  0  0  0  0  0  0  0
    1.2760    0.0000    0.0000 N   0  0  0  0  0  0  0  0  0  0  0  0
    0.3943   -1.2135    0.0000 C   0  0  0  0  0  0  0  0  0  0  0  0
   -1.0323   -0.7500    0.0000 N   0  0  0  0  0  0  0  0  0  0  0  0
   -1.0323    0.7500    0.0000 C   0  0  0  0  0  0  0  0  0  0  0  0
   -2.1470    1.7537    0.0000 C   0  0  0  0  0  0  0  0  0  0  0  0
   -3.5736    1.2902    0.0000 C   0  0  0  0  0  0  0  0  0  0  0  0
   -4.6883    2.2939    0.0000 N   0  0  0  0  0  0  0  0  0  0  0  0
   -3.8855   -0.1771    0.0000 O   0  0  0  0  0  0  0  0  0  0  0  0
  1  2  1  0
  2  3  1  0
  3  4  2  0
  4  5  1  0
  5  6  1  0
  6  7  1  0
  7  8  1  0
  8  9  1  0
  9 10  1  0
 10 11  1  0
  5 12  2  0
 12 13  1  0
 13 14  2  0
 14 15  1  0
 15 16  1  0
 16 17  2  0
 17 18  1  0
 18 19  1  0
 19 20  1  0
 20 21  2  0
 21 22  1  0
 21 23  1  0
 23 24  2  0
 24 25  1  0
 25 26  2  0
 26 27  1  0
 18 28  2  0
 28 29  1  0
 29 30  2  0
 30 31  1  0
 31 32  1  0
 32 33  2  0
 33 34  1  0
 34 35  1  0
 34 36  2  0
 14  3  1  0
 33 16  1  0
 11  7  1  0
 26 20  1  0
 32 28  1  0
M  END
>  <Compound_ID>  (230) 
CHEMBL3955742

>  <Molecule Name>  (230) 
nan

>  <Molecular Weight>  (230) 
525.44

>  <AlogP>  (230) 
5.30

>  <Smiles>  (230) 
COc1cc(CN2CCCC2)ccc1Nc1nc(Cc2c(Cl)cccc2Cl)c2nc[nH]c2c1C(N)=O

>  <Standard Type>  (230) 
Ki

>  <Standard Relation>  (230) 
'='

>  <Standard Units>  (230) 
nM

>  <Standard Value>  (230) 
1.0

>  <Assay ChEMBL ID>  (230) 
CHEMBL3887723

>  <Assay Description>  (230) 
Enzyme Inhibition Assay: ALK kinase assays were conducted with the indicated final concentrations unless otherwise specified. In 384 well black plates (Axygen), 8 ul of compound (2% DMSO) was incubated with 8 ul Lck-peptide substrate (0.5 uM, biotin-Ahx-GAEEEIYAAFFA-COOH) and 8 ul of a mixture of ALK (3 nM, Millipore) and ATP (50 uM) in reaction buffer (50 mM Hepes, pH 7.4; 10 mM MgCl2; 2 mM MnCl2; 0.1 mM sodium orthovanadate; 0.01% BSA and 1 mM DTT (added fresh before assay) for 1 h at room temperature. Reactions were then quenched by the addition of 30 ul quench solution (streptavidin-allophycocyanin and Europium-cryptate PT66 monoclonal antibody in 40 mM Hepes, pH 7.4; 480 mM KF; 66 mM EDTA; 0.01% Tween-20; and 0.1% BSA) at room temperature. Plates were read 1 h after quenching on an Envision Multilaber Reader and IC50 values were calculated using a sigmoidal fit of the concentration/inhibition response curves. These values were converted to apparent Ki values.

>  <BAO Format ID>  (230) 
BAO_0000357

>  <BAO Label>  (230) 
single protein format

>  <Assay Organism>  (230) 
Homo sapiens

>  <Target ChEMBL ID>  (230) 
CHEMBL4247

>  <Target Name>  (230) 
ALK tyrosine kinase receptor

>  <Target Organism>  (230) 
Homo sapiens

>  <Target Type>  (230) 
SINGLE PROTEIN

>  <Document ChEMBL ID>  (230) 
CHEMBL3886424

>  <Source Description>  (230) 
BindingDB Database

>  <Document Journal>  (230) 
nan

>  <Document Year>  (230) 
2015.0

>  <Active>  (230) 
1.0

>  <bits>  (230) 
<rdkit.DataStructs.cDataStructs.ExplicitBitVect object at 0x000002422F18B300>

>  <Group>  (230) 
G2

$$$$

     RDKit          2D

 43 47  0  0  0  0  0  0  0  0999 V2000
   -5.2500   -6.4952    0.0000 C   0  0  0  0  0  0  0  0  0  0  0  0
   -6.0000   -5.1962    0.0000 C   0  0  0  0  0  0  0  0  0  0  0  0
   -5.2500   -3.8971    0.0000 N   0  0  0  0  0  0  0  0  0  0  0  0
   -3.7500   -3.8971    0.0000 C   0  0  0  0  0  0  0  0  0  0  0  0
   -3.0000   -2.5981    0.0000 C   0  0  0  0  0  0  0  0  0  0  0  0
   -3.7500   -1.2990    0.0000 N   0  0  0  0  0  0  0  0  0  0  0  0
   -3.0000    0.0000    0.0000 C   0  0  0  0  0  0  0  0  0  0  0  0
   -1.5000    0.0000    0.0000 O   0  0  0  0  0  0  0  0  0  0  0  0
   -3.7500    1.2990    0.0000 C   0  0  0  0  0  0  0  0  0  0  0  0
   -5.2418    1.4558    0.0000 C   0  0  0  0  0  0  0  0  0  0  0  0
   -5.5537    2.9231    0.0000 C   0  0  0  0  0  0  0  0  0  0  0  0
   -4.2546    3.6731    0.0000 C   0  0  0  0  0  0  0  0  0  0  0  0
   -3.1399    2.6694    0.0000 N   0  0  0  0  0  0  0  0  0  0  0  0
   -1.6727    2.9812    0.0000 C   0  0  0  0  0  0  0  0  0  0  0  0
   -0.6690    1.8665    0.0000 C   0  0  0  0  0  0  0  0  0  0  0  0
    0.7982    2.1784    0.0000 C   0  0  0  0  0  0  0  0  0  0  0  0
    1.2618    3.6050    0.0000 C   0  0  0  0  0  0  0  0  0  0  0  0
    2.7290    3.9168    0.0000 N   0  0  0  0  0  0  0  0  0  0  0  0
    3.1925    5.3434    0.0000 C   0  0  0  0  0  0  0  0  0  0  0  0
    4.6597    5.6553    0.0000 N   0  0  0  0  0  0  0  0  0  0  0  0
    5.1233    7.0819    0.0000 C   0  0  0  0  0  0  0  0  0  0  0  0
    4.1196    8.1966    0.0000 C   0  0  0  0  0  0  0  0  0  0  0  0
    4.5831    9.6232    0.0000 Cl  0  0  0  0  0  0  0  0  0  0  0  0
    2.6523    7.8847    0.0000 C   0  0  0  0  0  0  0  0  0  0  0  0
    1.6486    8.9994    0.0000 N   0  0  0  0  0  0  0  0  0  0  0  0
    2.1122   10.4260    0.0000 C   0  0  0  0  0  0  0  0  0  0  0  0
    3.5794   10.7379    0.0000 C   0  0  0  0  0  0  0  0  0  0  0  0
    4.0429   12.1645    0.0000 C   0  0  0  0  0  0  0  0  0  0  0  0
    3.0392   13.2792    0.0000 C   0  0  0  0  0  0  0  0  0  0  0  0
    1.5720   12.9673    0.0000 C   0  0  0  0  0  0  0  0  0  0  0  0
    1.1085   11.5407    0.0000 C   0  0  0  0  0  0  0  0  0  0  0  0
   -0.3587   11.2289    0.0000 N   0  0  0  0  0  0  0  0  0  0  0  0
   -1.3624   12.3436    0.0000 S   0  0  0  0  0  0  0  0  0  0  0  0
   -2.3661   13.4583    0.0000 C   0  0  0  0  0  0  0  0  0  0  0  0
   -0.2477   13.3473    0.0000 O   0  0  0  0  0  0  0  0  0  0  0  0
   -2.4772   11.3399    0.0000 O   0  0  0  0  0  0  0  0  0  0  0  0
    2.1888    6.4581    0.0000 N   0  0  0  0  0  0  0  0  0  0  0  0
    0.2581    4.7197    0.0000 C   0  0  0  0  0  0  0  0  0  0  0  0
    0.7216    6.1463    0.0000 O   0  0  0  0  0  0  0  0  0  0  0  0
   -0.2821    7.2610    0.0000 C   0  0  0  0  0  0  0  0  0  0  0  0
   -1.2091    4.4078    0.0000 C   0  0  0  0  0  0  0  0  0  0  0  0
   -5.2500   -1.2990    0.0000 C   0  0  0  0  0  0  0  0  0  0  0  0
   -6.0000   -2.5981    0.0000 C   0  0  0  0  0  0  0  0  0  0  0  0
  1  2  1  0
  2  3  1  0
  3  4  1  0
  4  5  1  0
  5  6  1  0
  6  7  1  0
  7  8  2  0
  7  9  1  0
  9 10  2  0
 10 11  1  0
 11 12  2  0
 12 13  1  0
 13 14  1  0
 14 15  2  0
 15 16  1  0
 16 17  2  0
 17 18  1  0
 18 19  1  0
 19 20  2  0
 20 21  1  0
 21 22  2  0
 22 23  1  0
 22 24  1  0
 24 25  1  0
 25 26  1  0
 26 27  2  0
 27 28  1  0
 28 29  2  0
 29 30  1  0
 30 31  2  0
 31 32  1  0
 32 33  1  0
 33 34  1  0
 33 35  2  0
 33 36  2  0
 24 37  2  0
 17 38  1  0
 38 39  1  0
 39 40  1  0
 38 41  2  0
  6 42  1  0
 42 43  1  0
 43  3  1  0
 13  9  1  0
 41 14  1  0
 37 19  1  0
 31 26  1  0
M  END
>  <Compound_ID>  (231) 
CHEMBL4756753

>  <Molecule Name>  (231) 
nan

>  <Molecular Weight>  (231) 
625.15

>  <AlogP>  (231) 
4.57

>  <Smiles>  (231) 
CCN1CCN(C(=O)c2cccn2-c2ccc(Nc3ncc(Cl)c(Nc4ccccc4NS(C)(=O)=O)n3)c(OC)c2)CC1

>  <Standard Type>  (231) 
IC50

>  <Standard Relation>  (231) 
'='

>  <Standard Units>  (231) 
nM

>  <Standard Value>  (231) 
8.5

>  <Assay ChEMBL ID>  (231) 
CHEMBL4672519

>  <Assay Description>  (231) 
Inhibition of wild-type ALK (unknown origin) incubated for 1 hr

>  <BAO Format ID>  (231) 
BAO_0000357

>  <BAO Label>  (231) 
single protein format

>  <Assay Organism>  (231) 
Homo sapiens

>  <Target ChEMBL ID>  (231) 
CHEMBL4247

>  <Target Name>  (231) 
ALK tyrosine kinase receptor

>  <Target Organism>  (231) 
Homo sapiens

>  <Target Type>  (231) 
SINGLE PROTEIN

>  <Document ChEMBL ID>  (231) 
CHEMBL4665881

>  <Source Description>  (231) 
Scientific Literature

>  <Document Journal>  (231) 
Bioorg Med Chem

>  <Document Year>  (231) 
2020.0

>  <Active>  (231) 
1.0

>  <bits>  (231) 
<rdkit.DataStructs.cDataStructs.ExplicitBitVect object at 0x000002422F189D90>

>  <Group>  (231) 
G2

$$$$

     RDKit          2D

 36 39  0  0  0  0  0  0  0  0999 V2000
   -5.2500   -6.4952    0.0000 C   0  0  0  0  0  0  0  0  0  0  0  0
   -3.7500   -6.4952    0.0000 C   0  0  0  0  0  0  0  0  0  0  0  0
   -3.0000   -7.7942    0.0000 C   0  0  0  0  0  0  0  0  0  0  0  0
   -3.0000   -5.1962    0.0000 C   0  0  0  0  0  0  0  0  0  0  0  0
   -1.5000   -5.1962    0.0000 O   0  0  0  0  0  0  0  0  0  0  0  0
   -0.7500   -3.8971    0.0000 C   0  0  0  0  0  0  0  0  0  0  0  0
   -1.5000   -2.5981    0.0000 C   0  0  0  0  0  0  0  0  0  0  0  0
   -0.7500   -1.2990    0.0000 C   0  0  0  0  0  0  0  0  0  0  0  0
    0.7500   -1.2990    0.0000 C   0  0  0  0  0  0  0  0  0  0  0  0
    1.5000   -2.5981    0.0000 C   0  0  0  0  0  0  0  0  0  0  0  0
    0.7500   -3.8971    0.0000 C   0  0  0  0  0  0  0  0  0  0  0  0
    1.5000   -5.1962    0.0000 N   0  0  0  0  0  0  0  0  0  0  0  0
    0.7500   -6.4952    0.0000 C   0  0  0  0  0  0  0  0  0  0  0  0
   -0.7500   -6.4952    0.0000 N   0  0  0  0  0  0  0  0  0  0  0  0
   -1.5000   -7.7942    0.0000 C   0  0  0  0  0  0  0  0  0  0  0  0
   -0.7500   -9.0933    0.0000 C   0  0  0  0  0  0  0  0  0  0  0  0
   -1.5000  -10.3923    0.0000 Cl  0  0  0  0  0  0  0  0  0  0  0  0
    0.7500   -9.0933    0.0000 C   0  0  0  0  0  0  0  0  0  0  0  0
    1.5000  -10.3923    0.0000 N   0  0  0  0  0  0  0  0  0  0  0  0
    3.0000  -10.3923    0.0000 C   0  0  0  0  0  0  0  0  0  0  0  0
    3.7500   -9.0933    0.0000 C   0  0  0  0  0  0  0  0  0  0  0  0
    5.2500   -9.0933    0.0000 C   0  0  0  0  0  0  0  0  0  0  0  0
    6.0000  -10.3923    0.0000 C   0  0  0  0  0  0  0  0  0  0  0  0
    5.2500  -11.6913    0.0000 C   0  0  0  0  0  0  0  0  0  0  0  0
    3.7500  -11.6913    0.0000 C   0  0  0  0  0  0  0  0  0  0  0  0
    3.0000  -12.9904    0.0000 S   0  0  0  0  0  0  0  0  0  0  0  0
    1.7010  -12.2404    0.0000 O   0  0  0  0  0  0  0  0  0  0  0  0
    4.2990  -13.7404    0.0000 O   0  0  0  0  0  0  0  0  0  0  0  0
    2.2500  -14.2894    0.0000 C   0  0  0  0  0  0  0  0  0  0  0  0
    0.7500  -14.2894    0.0000 C   0  0  0  0  0  0  0  0  0  0  0  0
    3.0000  -15.5885    0.0000 C   0  0  0  0  0  0  0  0  0  0  0  0
    1.5000   -7.7942    0.0000 N   0  0  0  0  0  0  0  0  0  0  0  0
    1.5000    0.0000    0.0000 C   0  0  0  0  0  0  0  0  0  0  0  0
    0.7500    1.2990    0.0000 C   0  0  0  0  0  0  0  0  0  0  0  0
   -0.7500    1.2990    0.0000 N   0  0  0  0  0  0  0  0  0  0  0  0
   -1.5000    0.0000    0.0000 C   0  0  0  0  0  0  0  0  0  0  0  0
  1  2  1  0
  2  3  1  0
  2  4  1  0
  4  5  1  0
  5  6  1  0
  6  7  2  0
  7  8  1  0
  8  9  2  0
  9 10  1  0
 10 11  2  0
 11 12  1  0
 12 13  1  0
 13 14  2  0
 14 15  1  0
 15 16  2  0
 16 17  1  0
 16 18  1  0
 18 19  1  0
 19 20  1  0
 20 21  2  0
 21 22  1  0
 22 23  2  0
 23 24  1  0
 24 25  2  0
 25 26  1  0
 26 27  2  0
 26 28  2  0
 26 29  1  0
 29 30  1  0
 29 31  1  0
 18 32  2  0
  9 33  1  0
 33 34  1  0
 34 35  1  0
 35 36  1  0
 11  6  1  0
 32 13  1  0
 36  8  1  0
 25 20  1  0
M  END
>  <Compound_ID>  (232) 
CHEMBL4780333

>  <Molecule Name>  (232) 
nan

>  <Molecular Weight>  (232) 
530.09

>  <AlogP>  (232) 
5.48

>  <Smiles>  (232) 
CC(C)COc1cc2c(cc1Nc1ncc(Cl)c(Nc3ccccc3S(=O)(=O)C(C)C)n1)CCNC2

>  <Standard Type>  (232) 
IC50

>  <Standard Relation>  (232) 
'='

>  <Standard Units>  (232) 
nM

>  <Standard Value>  (232) 
1.2

>  <Assay ChEMBL ID>  (232) 
CHEMBL4716187

>  <Assay Description>  (232) 
Inhibition of ALK (unknown origin) using peptide substrate incubated for 30 mins in presence of ATP by fluorescence assay

>  <BAO Format ID>  (232) 
BAO_0000357

>  <BAO Label>  (232) 
single protein format

>  <Assay Organism>  (232) 
Homo sapiens

>  <Target ChEMBL ID>  (232) 
CHEMBL4247

>  <Target Name>  (232) 
ALK tyrosine kinase receptor

>  <Target Organism>  (232) 
Homo sapiens

>  <Target Type>  (232) 
SINGLE PROTEIN

>  <Document ChEMBL ID>  (232) 
CHEMBL4715694

>  <Source Description>  (232) 
Scientific Literature

>  <Document Journal>  (232) 
Bioorg Med Chem

>  <Document Year>  (232) 
2016.0

>  <Active>  (232) 
1.0

>  <bits>  (232) 
<rdkit.DataStructs.cDataStructs.ExplicitBitVect object at 0x000002422F188B30>

>  <Group>  (232) 
G2

$$$$

     RDKit          2D

 42 45  0  0  0  0  0  0  0  0999 V2000
   -3.7500    3.8971    0.0000 C   0  0  0  0  0  0  0  0  0  0  0  0
   -2.2500    3.8971    0.0000 C   0  0  0  0  0  0  0  0  0  0  0  0
   -1.5000    5.1962    0.0000 C   0  0  0  0  0  0  0  0  0  0  0  0
   -1.5000    2.5981    0.0000 S   0  0  0  0  0  0  0  0  0  0  0  0
   -0.2010    3.3481    0.0000 O   0  0  0  0  0  0  0  0  0  0  0  0
   -2.7990    1.8481    0.0000 O   0  0  0  0  0  0  0  0  0  0  0  0
   -0.7500    1.2990    0.0000 C   0  0  0  0  0  0  0  0  0  0  0  0
   -1.5000   -0.0000    0.0000 C   0  0  0  0  0  0  0  0  0  0  0  0
   -0.7500   -1.2990    0.0000 C   0  0  0  0  0  0  0  0  0  0  0  0
    0.7500   -1.2990    0.0000 C   0  0  0  0  0  0  0  0  0  0  0  0
    1.5000   -0.0000    0.0000 C   0  0  0  0  0  0  0  0  0  0  0  0
    0.7500    1.2990    0.0000 C   0  0  0  0  0  0  0  0  0  0  0  0
    1.5000    2.5981    0.0000 N   0  0  0  0  0  0  0  0  0  0  0  0
    3.0000    2.5981    0.0000 C   0  0  0  0  0  0  0  0  0  0  0  0
    3.7500    1.2990    0.0000 N   0  0  0  0  0  0  0  0  0  0  0  0
    5.2500    1.2990    0.0000 C   0  0  0  0  0  0  0  0  0  0  0  0
    6.0000   -0.0000    0.0000 N   0  0  0  0  0  0  0  0  0  0  0  0
    7.5000   -0.0000    0.0000 C   0  0  0  0  0  0  0  0  0  0  0  0
    8.2500   -1.2990    0.0000 C   0  0  0  0  0  0  0  0  0  0  0  0
    9.7500   -1.2990    0.0000 C   0  0  0  0  0  0  0  0  0  0  0  0
   10.5000   -0.0000    0.0000 C   0  0  0  0  0  0  0  0  0  0  0  0
    9.7500    1.2990    0.0000 C   0  0  0  0  0  0  0  0  0  0  0  0
   10.5000    2.5981    0.0000 N   0  0  0  0  0  0  0  0  0  0  0  0
   12.0000    2.5981    0.0000 C   0  0  0  0  0  0  0  0  0  0  0  0
   12.7500    1.2990    0.0000 O   0  0  0  0  0  0  0  0  0  0  0  0
   12.7500    3.8971    0.0000 C   0  0  0  0  0  0  0  0  0  0  0  0
   14.1989    4.2853    0.0000 C   0  0  0  0  0  0  0  0  0  0  0  0
   13.8107    5.7342    0.0000 N   0  0  0  0  0  0  0  0  0  0  0  0
   14.5607    7.0333    0.0000 C   0  0  0  0  0  0  0  0  0  0  0  0
   13.8107    8.3323    0.0000 O   0  0  0  0  0  0  0  0  0  0  0  0
   16.0607    7.0333    0.0000 C   0  0  0  0  0  0  0  0  0  0  0  0
   16.8107    8.3323    0.0000 C   0  0  0  0  0  0  0  0  0  0  0  0
   18.3107    8.3323    0.0000 C   0  0  0  0  0  0  0  0  0  0  0  0
   19.0607    9.6313    0.0000 N   0  0  0  0  0  0  0  0  0  0  0  0
   20.5607    9.6313    0.0000 C   0  0  0  0  0  0  0  0  0  0  0  0
   18.3107   10.9304    0.0000 C   0  0  0  0  0  0  0  0  0  0  0  0
   12.3618    5.3460    0.0000 C   0  0  0  0  0  0  0  0  0  0  0  0
    8.2500    1.2990    0.0000 C   0  0  0  0  0  0  0  0  0  0  0  0
    6.0000    2.5981    0.0000 N   0  0  0  0  0  0  0  0  0  0  0  0
    5.2500    3.8971    0.0000 C   0  0  0  0  0  0  0  0  0  0  0  0
    3.7500    3.8971    0.0000 C   0  0  0  0  0  0  0  0  0  0  0  0
    3.0000    5.1962    0.0000 Cl  0  0  0  0  0  0  0  0  0  0  0  0
  1  2  1  0
  2  3  1  0
  2  4  1  0
  4  5  2  0
  4  6  2  0
  4  7  1  0
  7  8  2  0
  8  9  1  0
  9 10  2  0
 10 11  1  0
 11 12  2  0
 12 13  1  0
 13 14  1  0
 14 15  2  0
 15 16  1  0
 16 17  1  0
 17 18  1  0
 18 19  2  0
 19 20  1  0
 20 21  2  0
 21 22  1  0
 22 23  1  0
 23 24  1  0
 24 25  2  0
 24 26  1  0
 26 27  1  0
 27 28  1  0
 28 29  1  0
 29 30  2  0
 29 31  1  0
 31 32  1  0
 32 33  1  0
 33 34  1  0
 34 35  1  0
 34 36  1  0
 28 37  1  0
 22 38  2  0
 16 39  2  0
 39 40  1  0
 40 41  2  0
 41 42  1  0
 12  7  1  0
 41 14  1  0
 38 18  1  0
 37 26  1  0
M  END
>  <Compound_ID>  (233) 
CHEMBL3357452

>  <Molecule Name>  (233) 
nan

>  <Molecular Weight>  (233) 
614.17

>  <AlogP>  (233) 
4.54

>  <Smiles>  (233) 
CC(C)S(=O)(=O)c1ccccc1Nc1nc(Nc2cccc(NC(=O)C3CN(C(=O)CCCN(C)C)C3)c2)ncc1Cl

>  <Standard Type>  (233) 
IC50

>  <Standard Relation>  (233) 
'='

>  <Standard Units>  (233) 
nM

>  <Standard Value>  (233) 
0.8

>  <Assay ChEMBL ID>  (233) 
CHEMBL3364272

>  <Assay Description>  (233) 
Inhibition of ALK (unknown origin) after 60 mins by ELISA

>  <BAO Format ID>  (233) 
BAO_0000357

>  <BAO Label>  (233) 
single protein format

>  <Assay Organism>  (233) 
Homo sapiens

>  <Target ChEMBL ID>  (233) 
CHEMBL4247

>  <Target Name>  (233) 
ALK tyrosine kinase receptor

>  <Target Organism>  (233) 
Homo sapiens

>  <Target Type>  (233) 
SINGLE PROTEIN

>  <Document ChEMBL ID>  (233) 
CHEMBL3351234

>  <Source Description>  (233) 
Scientific Literature

>  <Document Journal>  (233) 
J Med Chem

>  <Document Year>  (233) 
2015.0

>  <Active>  (233) 
1.0

>  <bits>  (233) 
<rdkit.DataStructs.cDataStructs.ExplicitBitVect object at 0x000002422F18B5A0>

>  <Group>  (233) 
G2

$$$$

     RDKit          2D

 36 41  0  0  0  0  0  0  0  0999 V2000
   -6.8516   -6.6578    0.0000 C   0  0  0  0  0  0  0  0  0  0  0  0
   -5.6381   -7.5395    0.0000 C   0  0  0  0  0  0  0  0  0  0  0  0
   -4.2677   -6.9294    0.0000 C   0  0  0  0  0  0  0  0  0  0  0  0
   -4.1110   -5.4376    0.0000 C   0  0  0  0  0  0  0  0  0  0  0  0
   -2.7406   -4.8275    0.0000 C   0  0  0  0  0  0  0  0  0  0  0  0
   -1.5271   -5.7092    0.0000 C   0  0  0  0  0  0  0  0  0  0  0  0
   -1.6839   -7.2010    0.0000 C   0  0  0  0  0  0  0  0  0  0  0  0
   -3.0542   -7.8111    0.0000 C   0  0  0  0  0  0  0  0  0  0  0  0
   -3.2110   -9.3029    0.0000 N   0  0  0  0  0  0  0  0  0  0  0  0
   -4.5813   -9.9130    0.0000 C   0  0  0  0  0  0  0  0  0  0  0  0
   -4.7381  -11.4047    0.0000 C   0  0  0  0  0  0  0  0  0  0  0  0
   -3.5246  -12.2864    0.0000 C   0  0  0  0  0  0  0  0  0  0  0  0
   -3.6814  -13.7782    0.0000 N   0  0  0  0  0  0  0  0  0  0  0  0
   -5.0517  -14.3883    0.0000 C   0  0  0  0  0  0  0  0  0  0  0  0
   -2.4679  -14.6599    0.0000 C   0  0  0  0  0  0  0  0  0  0  0  0
   -2.2332  -16.1414    0.0000 C   0  0  0  0  0  0  0  0  0  0  0  0
   -0.7517  -15.9068    0.0000 O   0  0  0  0  0  0  0  0  0  0  0  0
   -0.9863  -14.4252    0.0000 C   0  0  0  0  0  0  0  0  0  0  0  0
   -2.1543  -11.6763    0.0000 C   0  0  0  0  0  0  0  0  0  0  0  0
   -1.9975  -10.1845    0.0000 C   0  0  0  0  0  0  0  0  0  0  0  0
   -0.1568   -5.0991    0.0000 C   0  0  0  0  0  0  0  0  0  0  0  0
    1.3396   -4.9944    0.0000 C   0  0  0  0  0  0  0  0  0  0  0  0
    0.2061   -6.5545    0.0000 C   0  0  0  0  0  0  0  0  0  0  0  0
   -0.0000   -3.6073    0.0000 C   0  0  0  0  0  0  0  0  0  0  0  0
    1.2135   -2.7256    0.0000 N   0  0  0  0  0  0  0  0  0  0  0  0
    0.7500   -1.2990    0.0000 C   0  0  0  0  0  0  0  0  0  0  0  0
    1.5000    0.0000    0.0000 C   0  0  0  0  0  0  0  0  0  0  0  0
    0.7500    1.2990    0.0000 C   0  0  0  0  0  0  0  0  0  0  0  0
    1.5000    2.5981    0.0000 C   0  0  0  0  0  0  0  0  0  0  0  0
    2.2500    3.8971    0.0000 N   0  0  0  0  0  0  0  0  0  0  0  0
   -0.7500    1.2990    0.0000 C   0  0  0  0  0  0  0  0  0  0  0  0
   -1.5000    0.0000    0.0000 C   0  0  0  0  0  0  0  0  0  0  0  0
   -0.7500   -1.2990    0.0000 C   0  0  0  0  0  0  0  0  0  0  0  0
   -1.2135   -2.7256    0.0000 C   0  0  0  0  0  0  0  0  0  0  0  0
   -2.5838   -3.3357    0.0000 C   0  0  0  0  0  0  0  0  0  0  0  0
   -3.7974   -2.4540    0.0000 O   0  0  0  0  0  0  0  0  0  0  0  0
  1  2  1  0
  2  3  1  0
  3  4  2  0
  4  5  1  0
  5  6  2  0
  6  7  1  0
  7  8  2  0
  8  9  1  0
  9 10  1  0
 10 11  1  0
 11 12  1  0
 12 13  1  0
 13 14  1  0
 13 15  1  0
 15 16  1  0
 16 17  1  0
 17 18  1  0
 12 19  1  0
 19 20  1  0
  6 21  1  0
 21 22  1  0
 21 23  1  0
 21 24  1  0
 24 25  1  0
 25 26  1  0
 26 27  2  0
 27 28  1  0
 28 29  1  0
 29 30  3  0
 28 31  2  0
 31 32  1  0
 32 33  2  0
 33 34  1  0
 34 35  1  0
 35 36  2  0
  8  3  1  0
 20  9  1  0
 34 24  2  0
 35  5  1  0
 18 15  1  0
 33 26  1  0
M  END
>  <Compound_ID>  (234) 
CHEMBL3735531

>  <Molecule Name>  (234) 
nan

>  <Molecular Weight>  (234) 
482.63

>  <AlogP>  (234) 
4.77

>  <Smiles>  (234) 
CCc1cc2c(cc1N1CCC(N(C)C3COC3)CC1)C(C)(C)c1[nH]c3cc(C#N)ccc3c1C2=O

>  <Standard Type>  (234) 
IC50

>  <Standard Relation>  (234) 
'='

>  <Standard Units>  (234) 
nM

>  <Standard Value>  (234) 
9.5

>  <Assay ChEMBL ID>  (234) 
CHEMBL3738493

>  <Assay Description>  (234) 
Inhibition of recombinant ALK (unknown origin) using poly (Glu, Tyr)4:1 substrate incubated for 60 mins by ELISA

>  <BAO Format ID>  (234) 
BAO_0000357

>  <BAO Label>  (234) 
single protein format

>  <Assay Organism>  (234) 
Homo sapiens

>  <Target ChEMBL ID>  (234) 
CHEMBL4247

>  <Target Name>  (234) 
ALK tyrosine kinase receptor

>  <Target Organism>  (234) 
Homo sapiens

>  <Target Type>  (234) 
SINGLE PROTEIN

>  <Document ChEMBL ID>  (234) 
CHEMBL3734710

>  <Source Description>  (234) 
Scientific Literature

>  <Document Journal>  (234) 
Eur J Med Chem

>  <Document Year>  (234) 
2015.0

>  <Active>  (234) 
1.0

>  <bits>  (234) 
<rdkit.DataStructs.cDataStructs.ExplicitBitVect object at 0x000002422F188C10>

>  <Group>  (234) 
G2

$$$$

     RDKit          2D

 36 40  0  0  0  0  0  0  0  0999 V2000
    3.7500   -6.4952    0.0000 C   0  0  0  0  0  0  0  0  0  0  0  0
    3.0000   -5.1962    0.0000 O   0  0  0  0  0  0  0  0  0  0  0  0
    1.5000   -5.1962    0.0000 C   0  0  0  0  0  0  0  0  0  0  0  0
    0.7500   -6.4952    0.0000 C   0  0  0  0  0  0  0  0  0  0  0  0
   -0.7500   -6.4952    0.0000 C   0  0  0  0  0  0  0  0  0  0  0  0
   -1.5000   -7.7942    0.0000 C   0  0  0  0  0  0  0  0  0  0  0  0
   -3.0000   -7.7942    0.0000 C   0  0  0  0  0  0  0  0  0  0  0  0
   -3.7500   -9.0933    0.0000 C   0  0  0  0  0  0  0  0  0  0  0  0
   -3.0000  -10.3923    0.0000 N   0  0  0  0  0  0  0  0  0  0  0  0
   -3.7500  -11.6913    0.0000 C   0  0  0  0  0  0  0  0  0  0  0  0
   -5.2500  -11.6913    0.0000 C   0  0  0  0  0  0  0  0  0  0  0  0
   -6.0000  -12.9904    0.0000 O   0  0  0  0  0  0  0  0  0  0  0  0
   -1.5000  -10.3923    0.0000 C   0  0  0  0  0  0  0  0  0  0  0  0
   -0.7500   -9.0933    0.0000 C   0  0  0  0  0  0  0  0  0  0  0  0
    0.7500   -9.0933    0.0000 O   0  0  0  0  0  0  0  0  0  0  0  0
   -1.5000   -5.1962    0.0000 C   0  0  0  0  0  0  0  0  0  0  0  0
   -0.7500   -3.8971    0.0000 C   0  0  0  0  0  0  0  0  0  0  0  0
    0.7500   -3.8971    0.0000 C   0  0  0  0  0  0  0  0  0  0  0  0
    1.5000   -2.5981    0.0000 N   0  0  0  0  0  0  0  0  0  0  0  0
    0.7500   -1.2990    0.0000 C   0  0  0  0  0  0  0  0  0  0  0  0
    1.5000    0.0000    0.0000 N   0  0  0  0  0  0  0  0  0  0  0  0
    0.7500    1.2990    0.0000 C   0  0  0  0  0  0  0  0  0  0  0  0
   -0.7500    1.2990    0.0000 C   0  0  0  0  0  0  0  0  0  0  0  0
   -1.7537    2.4138    0.0000 C   0  0  0  0  0  0  0  0  0  0  0  0
   -3.1240    1.8037    0.0000 C   0  0  0  0  0  0  0  0  0  0  0  0
   -2.9672    0.3119    0.0000 C   0  0  0  0  0  0  0  0  0  0  0  0
   -4.0819   -0.6918    0.0000 C   0  0  0  0  0  0  0  0  0  0  0  0
   -5.5085   -0.2283    0.0000 C   0  0  0  0  0  0  0  0  0  0  0  0
   -6.6232   -1.2320    0.0000 C   0  0  0  0  0  0  0  0  0  0  0  0
   -6.3114   -2.6992    0.0000 C   0  0  0  0  0  0  0  0  0  0  0  0
   -4.8848   -3.1627    0.0000 C   0  0  0  0  0  0  0  0  0  0  0  0
   -3.7701   -2.1590    0.0000 C   0  0  0  0  0  0  0  0  0  0  0  0
   -2.3435   -2.6226    0.0000 O   0  0  0  0  0  0  0  0  0  0  0  0
   -2.0316   -4.0898    0.0000 C   0  0  0  0  0  0  0  0  0  0  0  0
   -1.5000    0.0000    0.0000 N   0  0  0  0  0  0  0  0  0  0  0  0
   -0.7500   -1.2990    0.0000 N   0  0  0  0  0  0  0  0  0  0  0  0
  1  2  1  0
  2  3  1  0
  3  4  2  0
  4  5  1  0
  6  5  1  6
  6  7  1  0
  7  8  1  0
  8  9  1  0
  9 10  1  0
 10 11  1  0
 11 12  1  0
  9 13  1  0
 13 14  1  0
 14 15  1  1
  5 16  2  0
 16 17  1  0
 17 18  2  0
 18 19  1  0
 19 20  1  0
 20 21  1  0
 21 22  2  0
 22 23  1  0
 23 24  2  0
 24 25  1  0
 25 26  2  0
 26 27  1  0
 27 28  2  0
 28 29  1  0
 29 30  2  0
 30 31  1  0
 31 32  2  0
 32 33  1  0
 33 34  1  0
 26 35  1  0
 35 36  1  0
 18  3  1  0
 36 20  2  0
 14  6  1  0
 35 23  1  0
 32 27  1  0
M  END
>  <Compound_ID>  (235) 
CHEMBL3398175

>  <Molecule Name>  (235) 
nan

>  <Molecular Weight>  (235) 
489.58

>  <AlogP>  (235) 
3.30

>  <Smiles>  (235) 
COc1cc([C@H]2CCN(CCO)C[C@@H]2O)ccc1Nc1ncc2ccc(-c3ccccc3OC)n2n1

>  <Standard Type>  (235) 
IC50

>  <Standard Relation>  (235) 
'='

>  <Standard Units>  (235) 
nM

>  <Standard Value>  (235) 
5.0

>  <Assay ChEMBL ID>  (235) 
CHEMBL3398705

>  <Assay Description>  (235) 
Inhibition of ALK (unknown origin) by enzymatic assay

>  <BAO Format ID>  (235) 
BAO_0000357

>  <BAO Label>  (235) 
single protein format

>  <Assay Organism>  (235) 
Homo sapiens

>  <Target ChEMBL ID>  (235) 
CHEMBL4247

>  <Target Name>  (235) 
ALK tyrosine kinase receptor

>  <Target Organism>  (235) 
Homo sapiens

>  <Target Type>  (235) 
SINGLE PROTEIN

>  <Document ChEMBL ID>  (235) 
CHEMBL3396997

>  <Source Description>  (235) 
Scientific Literature

>  <Document Journal>  (235) 
Bioorg Med Chem Lett

>  <Document Year>  (235) 
2015.0

>  <Active>  (235) 
1.0

>  <bits>  (235) 
<rdkit.DataStructs.cDataStructs.ExplicitBitVect object at 0x000002422F188BA0>

>  <Group>  (235) 
G2

$$$$

     RDKit          2D

 42 46  0  0  0  0  0  0  0  0999 V2000
    3.7500   -6.4952    0.0000 C   0  0  0  0  0  0  0  0  0  0  0  0
    3.0000   -5.1962    0.0000 O   0  0  0  0  0  0  0  0  0  0  0  0
    1.5000   -5.1962    0.0000 C   0  0  0  0  0  0  0  0  0  0  0  0
    0.7500   -6.4952    0.0000 C   0  0  0  0  0  0  0  0  0  0  0  0
   -0.7500   -6.4952    0.0000 C   0  0  0  0  0  0  0  0  0  0  0  0
   -1.5000   -7.7942    0.0000 C   0  0  0  0  0  0  0  0  0  0  0  0
   -2.6491   -6.8300    0.0000 O   0  0  0  0  0  0  0  0  0  0  0  0
   -0.0905   -8.3073    0.0000 C   0  0  0  0  0  0  0  0  0  0  0  0
    0.1700   -9.7845    0.0000 C   0  0  0  0  0  0  0  0  0  0  0  0
   -0.9791  -10.7487    0.0000 N   0  0  0  0  0  0  0  0  0  0  0  0
   -0.7186  -12.2259    0.0000 C   0  0  0  0  0  0  0  0  0  0  0  0
   -1.8676  -13.1900    0.0000 C   0  0  0  0  0  0  0  0  0  0  0  0
   -1.6072  -14.6673    0.0000 N   0  0  0  0  0  0  0  0  0  0  0  0
   -3.2772  -12.6770    0.0000 O   0  0  0  0  0  0  0  0  0  0  0  0
   -2.3886  -10.2356    0.0000 C   0  0  0  0  0  0  0  0  0  0  0  0
   -2.6491   -8.7584    0.0000 C   0  0  0  0  0  0  0  0  0  0  0  0
   -4.0586   -8.2454    0.0000 O   0  0  0  0  0  0  0  0  0  0  0  0
   -1.5000   -5.1962    0.0000 C   0  0  0  0  0  0  0  0  0  0  0  0
   -0.7500   -3.8971    0.0000 C   0  0  0  0  0  0  0  0  0  0  0  0
    0.7500   -3.8971    0.0000 C   0  0  0  0  0  0  0  0  0  0  0  0
    1.5000   -2.5981    0.0000 N   0  0  0  0  0  0  0  0  0  0  0  0
    0.7500   -1.2990    0.0000 C   0  0  0  0  0  0  0  0  0  0  0  0
    1.5000    0.0000    0.0000 N   0  0  0  0  0  0  0  0  0  0  0  0
    0.7500    1.2990    0.0000 C   0  0  0  0  0  0  0  0  0  0  0  0
   -0.7500    1.2990    0.0000 C   0  0  0  0  0  0  0  0  0  0  0  0
   -1.7537    2.4138    0.0000 C   0  0  0  0  0  0  0  0  0  0  0  0
   -3.1240    1.8037    0.0000 C   0  0  0  0  0  0  0  0  0  0  0  0
   -2.9672    0.3119    0.0000 C   0  0  0  0  0  0  0  0  0  0  0  0
   -4.0819   -0.6918    0.0000 C   0  0  0  0  0  0  0  0  0  0  0  0
   -3.7701   -2.1590    0.0000 C   0  0  0  0  0  0  0  0  0  0  0  0
   -4.8848   -3.1627    0.0000 C   0  0  0  0  0  0  0  0  0  0  0  0
   -6.3114   -2.6992    0.0000 C   0  0  0  0  0  0  0  0  0  0  0  0
   -6.6232   -1.2320    0.0000 C   0  0  0  0  0  0  0  0  0  0  0  0
   -5.5085   -0.2283    0.0000 C   0  0  0  0  0  0  0  0  0  0  0  0
   -5.8204    1.2389    0.0000 N   0  0  0  0  0  0  0  0  0  0  0  0
   -7.2470    1.7024    0.0000 C   0  0  0  0  0  0  0  0  0  0  0  0
   -4.7057    2.2426    0.0000 S   0  0  0  0  0  0  0  0  0  0  0  0
   -3.5910    3.2463    0.0000 C   0  0  0  0  0  0  0  0  0  0  0  0
   -3.7020    1.1279    0.0000 O   0  0  0  0  0  0  0  0  0  0  0  0
   -5.7094    3.3573    0.0000 O   0  0  0  0  0  0  0  0  0  0  0  0
   -1.5000    0.0000    0.0000 N   0  0  0  0  0  0  0  0  0  0  0  0
   -0.7500   -1.2990    0.0000 N   0  0  0  0  0  0  0  0  0  0  0  0
  1  2  1  0
  2  3  1  0
  3  4  2  0
  4  5  1  0
  5  6  1  0
  6  7  1  6
  6  8  1  0
  8  9  1  0
  9 10  1  0
 10 11  1  0
 11 12  1  0
 12 13  1  0
 12 14  2  0
 10 15  1  0
 15 16  1  0
 16 17  1  6
  5 18  2  0
 18 19  1  0
 19 20  2  0
 20 21  1  0
 21 22  1  0
 22 23  1  0
 23 24  2  0
 24 25  1  0
 25 26  2  0
 26 27  1  0
 27 28  2  0
 28 29  1  0
 29 30  2  0
 30 31  1  0
 31 32  2  0
 32 33  1  0
 33 34  2  0
 34 35  1  0
 35 36  1  0
 35 37  1  0
 37 38  1  0
 37 39  2  0
 37 40  2  0
 28 41  1  0
 41 42  1  0
 20  3  1  0
 42 22  2  0
 16  6  1  0
 41 25  1  0
 34 29  1  0
M  END
>  <Compound_ID>  (236) 
CHEMBL3398170

>  <Molecule Name>  (236) 
nan

>  <Molecular Weight>  (236) 
595.68

>  <AlogP>  (236) 
1.28

>  <Smiles>  (236) 
COc1cc([C@@]2(O)CCN(CC(N)=O)C[C@@H]2O)ccc1Nc1ncc2ccc(-c3ccccc3N(C)S(C)(=O)=O)n2n1

>  <Standard Type>  (236) 
IC50

>  <Standard Relation>  (236) 
'='

>  <Standard Units>  (236) 
nM

>  <Standard Value>  (236) 
15.0

>  <Assay ChEMBL ID>  (236) 
CHEMBL3398705

>  <Assay Description>  (236) 
Inhibition of ALK (unknown origin) by enzymatic assay

>  <BAO Format ID>  (236) 
BAO_0000357

>  <BAO Label>  (236) 
single protein format

>  <Assay Organism>  (236) 
Homo sapiens

>  <Target ChEMBL ID>  (236) 
CHEMBL4247

>  <Target Name>  (236) 
ALK tyrosine kinase receptor

>  <Target Organism>  (236) 
Homo sapiens

>  <Target Type>  (236) 
SINGLE PROTEIN

>  <Document ChEMBL ID>  (236) 
CHEMBL3396997

>  <Source Description>  (236) 
Scientific Literature

>  <Document Journal>  (236) 
Bioorg Med Chem Lett

>  <Document Year>  (236) 
2015.0

>  <Active>  (236) 
1.0

>  <bits>  (236) 
<rdkit.DataStructs.cDataStructs.ExplicitBitVect object at 0x000002422F188120>

>  <Group>  (236) 
G2

$$$$

     RDKit          2D

 35 39  0  0  0  0  0  0  0  0999 V2000
    3.7500   -6.4952    0.0000 C   0  0  0  0  0  0  0  0  0  0  0  0
    3.0000   -5.1962    0.0000 O   0  0  0  0  0  0  0  0  0  0  0  0
    1.5000   -5.1962    0.0000 C   0  0  0  0  0  0  0  0  0  0  0  0
    0.7500   -6.4952    0.0000 C   0  0  0  0  0  0  0  0  0  0  0  0
   -0.7500   -6.4952    0.0000 C   0  0  0  0  0  0  0  0  0  0  0  0
   -1.5000   -7.7942    0.0000 C   0  0  0  0  0  0  0  0  0  0  0  0
   -2.6491   -6.8300    0.0000 O   0  0  0  0  0  0  0  0  0  0  0  0
   -0.0905   -8.3073    0.0000 C   0  0  0  0  0  0  0  0  0  0  0  0
    0.1700   -9.7845    0.0000 C   0  0  0  0  0  0  0  0  0  0  0  0
   -0.9791  -10.7487    0.0000 N   0  0  0  0  0  0  0  0  0  0  0  0
   -0.7186  -12.2259    0.0000 C   0  0  0  0  0  0  0  0  0  0  0  0
   -2.3886  -10.2356    0.0000 C   0  0  0  0  0  0  0  0  0  0  0  0
   -2.6491   -8.7584    0.0000 C   0  0  0  0  0  0  0  0  0  0  0  0
   -4.0586   -8.2454    0.0000 O   0  0  0  0  0  0  0  0  0  0  0  0
   -1.5000   -5.1962    0.0000 C   0  0  0  0  0  0  0  0  0  0  0  0
   -0.7500   -3.8971    0.0000 C   0  0  0  0  0  0  0  0  0  0  0  0
    0.7500   -3.8971    0.0000 C   0  0  0  0  0  0  0  0  0  0  0  0
    1.5000   -2.5981    0.0000 N   0  0  0  0  0  0  0  0  0  0  0  0
    0.7500   -1.2990    0.0000 C   0  0  0  0  0  0  0  0  0  0  0  0
    1.5000    0.0000    0.0000 N   0  0  0  0  0  0  0  0  0  0  0  0
    0.7500    1.2990    0.0000 C   0  0  0  0  0  0  0  0  0  0  0  0
   -0.7500    1.2990    0.0000 C   0  0  0  0  0  0  0  0  0  0  0  0
   -1.7537    2.4138    0.0000 C   0  0  0  0  0  0  0  0  0  0  0  0
   -3.1240    1.8037    0.0000 C   0  0  0  0  0  0  0  0  0  0  0  0
   -2.9672    0.3119    0.0000 C   0  0  0  0  0  0  0  0  0  0  0  0
   -4.0819   -0.6918    0.0000 C   0  0  0  0  0  0  0  0  0  0  0  0
   -5.5085   -0.2283    0.0000 C   0  0  0  0  0  0  0  0  0  0  0  0
   -6.6232   -1.2320    0.0000 C   0  0  0  0  0  0  0  0  0  0  0  0
   -6.3114   -2.6992    0.0000 C   0  0  0  0  0  0  0  0  0  0  0  0
   -4.8848   -3.1627    0.0000 C   0  0  0  0  0  0  0  0  0  0  0  0
   -3.7701   -2.1590    0.0000 C   0  0  0  0  0  0  0  0  0  0  0  0
   -2.3435   -2.6226    0.0000 O   0  0  0  0  0  0  0  0  0  0  0  0
   -2.0316   -4.0898    0.0000 C   0  0  0  0  0  0  0  0  0  0  0  0
   -1.5000    0.0000    0.0000 N   0  0  0  0  0  0  0  0  0  0  0  0
   -0.7500   -1.2990    0.0000 N   0  0  0  0  0  0  0  0  0  0  0  0
  1  2  1  0
  2  3  1  0
  3  4  2  0
  4  5  1  0
  5  6  1  0
  6  7  1  6
  6  8  1  0
  8  9  1  0
  9 10  1  0
 10 11  1  0
 10 12  1  0
 12 13  1  0
 13 14  1  6
  5 15  2  0
 15 16  1  0
 16 17  2  0
 17 18  1  0
 18 19  1  0
 19 20  1  0
 20 21  2  0
 21 22  1  0
 22 23  2  0
 23 24  1  0
 24 25  2  0
 25 26  1  0
 26 27  2  0
 27 28  1  0
 28 29  2  0
 29 30  1  0
 30 31  2  0
 31 32  1  0
 32 33  1  0
 25 34  1  0
 34 35  1  0
 17  3  1  0
 35 19  2  0
 13  6  1  0
 34 22  1  0
 31 26  1  0
M  END
>  <Compound_ID>  (237) 
CHEMBL3398166

>  <Molecule Name>  (237) 
nan

>  <Molecular Weight>  (237) 
475.55

>  <AlogP>  (237) 
3.04

>  <Smiles>  (237) 
COc1cc([C@@]2(O)CCN(C)C[C@@H]2O)ccc1Nc1ncc2ccc(-c3ccccc3OC)n2n1

>  <Standard Type>  (237) 
IC50

>  <Standard Relation>  (237) 
'='

>  <Standard Units>  (237) 
nM

>  <Standard Value>  (237) 
3.0

>  <Assay ChEMBL ID>  (237) 
CHEMBL3398705

>  <Assay Description>  (237) 
Inhibition of ALK (unknown origin) by enzymatic assay

>  <BAO Format ID>  (237) 
BAO_0000357

>  <BAO Label>  (237) 
single protein format

>  <Assay Organism>  (237) 
Homo sapiens

>  <Target ChEMBL ID>  (237) 
CHEMBL4247

>  <Target Name>  (237) 
ALK tyrosine kinase receptor

>  <Target Organism>  (237) 
Homo sapiens

>  <Target Type>  (237) 
SINGLE PROTEIN

>  <Document ChEMBL ID>  (237) 
CHEMBL3396997

>  <Source Description>  (237) 
Scientific Literature

>  <Document Journal>  (237) 
Bioorg Med Chem Lett

>  <Document Year>  (237) 
2015.0

>  <Active>  (237) 
1.0

>  <bits>  (237) 
<rdkit.DataStructs.cDataStructs.ExplicitBitVect object at 0x000002422F188EB0>

>  <Group>  (237) 
G2

$$$$

     RDKit          2D

 34 36  0  0  0  0  0  0  0  0999 V2000
   -3.7500    3.8971    0.0000 C   0  0  0  0  0  0  0  0  0  0  0  0
   -2.2500    3.8971    0.0000 C   0  0  0  0  0  0  0  0  0  0  0  0
   -1.5000    5.1962    0.0000 C   0  0  0  0  0  0  0  0  0  0  0  0
   -1.5000    2.5981    0.0000 S   0  0  0  0  0  0  0  0  0  0  0  0
   -0.2010    3.3481    0.0000 O   0  0  0  0  0  0  0  0  0  0  0  0
   -2.7990    1.8481    0.0000 O   0  0  0  0  0  0  0  0  0  0  0  0
   -0.7500    1.2990    0.0000 C   0  0  0  0  0  0  0  0  0  0  0  0
   -1.5000   -0.0000    0.0000 C   0  0  0  0  0  0  0  0  0  0  0  0
   -0.7500   -1.2990    0.0000 C   0  0  0  0  0  0  0  0  0  0  0  0
    0.7500   -1.2990    0.0000 C   0  0  0  0  0  0  0  0  0  0  0  0
    1.5000   -0.0000    0.0000 C   0  0  0  0  0  0  0  0  0  0  0  0
    0.7500    1.2990    0.0000 C   0  0  0  0  0  0  0  0  0  0  0  0
    1.5000    2.5981    0.0000 N   0  0  0  0  0  0  0  0  0  0  0  0
    3.0000    2.5981    0.0000 C   0  0  0  0  0  0  0  0  0  0  0  0
    3.7500    1.2990    0.0000 N   0  0  0  0  0  0  0  0  0  0  0  0
    5.2500    1.2990    0.0000 C   0  0  0  0  0  0  0  0  0  0  0  0
    6.0000   -0.0000    0.0000 N   0  0  0  0  0  0  0  0  0  0  0  0
    7.5000   -0.0000    0.0000 C   0  0  0  0  0  0  0  0  0  0  0  0
    8.2500   -1.2990    0.0000 C   0  0  0  0  0  0  0  0  0  0  0  0
    9.7500   -1.2990    0.0000 C   0  0  0  0  0  0  0  0  0  0  0  0
   10.5000   -0.0000    0.0000 C   0  0  0  0  0  0  0  0  0  0  0  0
    9.7500    1.2990    0.0000 C   0  0  0  0  0  0  0  0  0  0  0  0
   10.5000    2.5981    0.0000 N   0  0  0  0  0  0  0  0  0  0  0  0
   12.0000    2.5981    0.0000 C   0  0  0  0  0  0  0  0  0  0  0  0
   12.7500    1.2990    0.0000 O   0  0  0  0  0  0  0  0  0  0  0  0
   12.7500    3.8971    0.0000 C   0  0  0  0  0  0  0  0  0  0  0  0
   11.4510    4.6471    0.0000 C   0  0  0  0  0  0  0  0  0  0  0  0
   14.0490    3.1471    0.0000 C   0  0  0  0  0  0  0  0  0  0  0  0
   13.5000    5.1962    0.0000 N   0  0  0  0  0  0  0  0  0  0  0  0
    8.2500    1.2990    0.0000 C   0  0  0  0  0  0  0  0  0  0  0  0
    6.0000    2.5981    0.0000 N   0  0  0  0  0  0  0  0  0  0  0  0
    5.2500    3.8971    0.0000 C   0  0  0  0  0  0  0  0  0  0  0  0
    3.7500    3.8971    0.0000 C   0  0  0  0  0  0  0  0  0  0  0  0
    3.0000    5.1962    0.0000 Cl  0  0  0  0  0  0  0  0  0  0  0  0
  1  2  1  0
  2  3  1  0
  2  4  1  0
  4  5  2  0
  4  6  2  0
  4  7  1  0
  7  8  2  0
  8  9  1  0
  9 10  2  0
 10 11  1  0
 11 12  2  0
 12 13  1  0
 13 14  1  0
 14 15  2  0
 15 16  1  0
 16 17  1  0
 17 18  1  0
 18 19  2  0
 19 20  1  0
 20 21  2  0
 21 22  1  0
 22 23  1  0
 23 24  1  0
 24 25  2  0
 24 26  1  0
 26 27  1  0
 26 28  1  0
 26 29  1  0
 22 30  2  0
 16 31  2  0
 31 32  1  0
 32 33  2  0
 33 34  1  0
 12  7  1  0
 33 14  1  0
 30 18  1  0
M  END
>  <Compound_ID>  (238) 
CHEMBL3357447

>  <Molecule Name>  (238) 
nan

>  <Molecular Weight>  (238) 
503.03

>  <AlogP>  (238) 
4.48

>  <Smiles>  (238) 
CC(C)S(=O)(=O)c1ccccc1Nc1nc(Nc2cccc(NC(=O)C(C)(C)N)c2)ncc1Cl

>  <Standard Type>  (238) 
IC50

>  <Standard Relation>  (238) 
'='

>  <Standard Units>  (238) 
nM

>  <Standard Value>  (238) 
5.5

>  <Assay ChEMBL ID>  (238) 
CHEMBL3364272

>  <Assay Description>  (238) 
Inhibition of ALK (unknown origin) after 60 mins by ELISA

>  <BAO Format ID>  (238) 
BAO_0000357

>  <BAO Label>  (238) 
single protein format

>  <Assay Organism>  (238) 
Homo sapiens

>  <Target ChEMBL ID>  (238) 
CHEMBL4247

>  <Target Name>  (238) 
ALK tyrosine kinase receptor

>  <Target Organism>  (238) 
Homo sapiens

>  <Target Type>  (238) 
SINGLE PROTEIN

>  <Document ChEMBL ID>  (238) 
CHEMBL3351234

>  <Source Description>  (238) 
Scientific Literature

>  <Document Journal>  (238) 
J Med Chem

>  <Document Year>  (238) 
2015.0

>  <Active>  (238) 
1.0

>  <bits>  (238) 
<rdkit.DataStructs.cDataStructs.ExplicitBitVect object at 0x000002422F18A2D0>

>  <Group>  (238) 
G2

$$$$

     RDKit          2D

 36 40  0  0  0  0  0  0  0  0999 V2000
   -3.8536   -0.8075    0.0000 C   0  0  0  0  0  0  0  0  0  0  0  0
   -3.8536   -2.3075    0.0000 C   0  0  0  0  0  0  0  0  0  0  0  0
   -5.0672   -3.1891    0.0000 O   0  0  0  0  0  0  0  0  0  0  0  0
   -4.6036   -4.6157    0.0000 C   0  0  0  0  0  0  0  0  0  0  0  0
   -3.1036   -4.6157    0.0000 C   0  0  0  0  0  0  0  0  0  0  0  0
   -2.6401   -3.1891    0.0000 C   0  0  0  0  0  0  0  0  0  0  0  0
   -1.2135   -2.7256    0.0000 C   0  0  0  0  0  0  0  0  0  0  0  0
   -0.0000   -3.6073    0.0000 C   0  0  0  0  0  0  0  0  0  0  0  0
    0.0000   -5.1073    0.0000 C   0  0  0  0  0  0  0  0  0  0  0  0
    1.2990   -5.8573    0.0000 N   0  0  0  0  0  0  0  0  0  0  0  0
   -1.2990   -5.8573    0.0000 O   0  0  0  0  0  0  0  0  0  0  0  0
    1.2135   -2.7256    0.0000 S   0  0  0  0  0  0  0  0  0  0  0  0
    0.7500   -1.2990    0.0000 C   0  0  0  0  0  0  0  0  0  0  0  0
    1.5000    0.0000    0.0000 C   0  0  0  0  0  0  0  0  0  0  0  0
    0.7500    1.2990    0.0000 N   0  0  0  0  0  0  0  0  0  0  0  0
   -0.7500    1.2990    0.0000 C   0  0  0  0  0  0  0  0  0  0  0  0
   -1.5000    2.5981    0.0000 N   0  0  0  0  0  0  0  0  0  0  0  0
   -0.7500    3.8971    0.0000 C   0  0  0  0  0  0  0  0  0  0  0  0
    0.7500    3.8971    0.0000 C   0  0  0  0  0  0  0  0  0  0  0  0
    1.5000    5.1962    0.0000 C   0  0  0  0  0  0  0  0  0  0  0  0
    0.7500    6.4952    0.0000 C   0  0  0  0  0  0  0  0  0  0  0  0
    1.5000    7.7942    0.0000 C   0  0  0  0  0  0  0  0  0  0  0  0
    3.0000    7.7942    0.0000 C   0  0  0  0  0  0  0  0  0  0  0  0
    3.7500    9.0933    0.0000 C   0  0  0  0  0  0  0  0  0  0  0  0
    3.0000   10.3923    0.0000 N   0  0  0  0  0  0  0  0  0  0  0  0
    3.7500   11.6913    0.0000 C   0  0  0  0  0  0  0  0  0  0  0  0
    1.5000   10.3923    0.0000 C   0  0  0  0  0  0  0  0  0  0  0  0
    0.7500    9.0933    0.0000 C   0  0  0  0  0  0  0  0  0  0  0  0
   -0.7500    6.4952    0.0000 C   0  0  0  0  0  0  0  0  0  0  0  0
   -1.5000    5.1962    0.0000 C   0  0  0  0  0  0  0  0  0  0  0  0
   -3.0000    5.1962    0.0000 O   0  0  0  0  0  0  0  0  0  0  0  0
   -3.7500    6.4952    0.0000 C   0  0  0  0  0  0  0  0  0  0  0  0
   -5.2500    6.4952    0.0000 C   0  0  0  0  0  0  0  0  0  0  0  0
   -3.0000    7.7942    0.0000 C   0  0  0  0  0  0  0  0  0  0  0  0
   -1.5000    0.0000    0.0000 N   0  0  0  0  0  0  0  0  0  0  0  0
   -0.7500   -1.2990    0.0000 C   0  0  0  0  0  0  0  0  0  0  0  0
  1  2  1  0
  2  3  1  0
  3  4  1  0
  4  5  2  0
  5  6  1  0
  6  7  1  0
  7  8  2  0
  8  9  1  0
  9 10  1  0
  9 11  2  0
  8 12  1  0
 12 13  1  0
 13 14  2  0
 14 15  1  0
 15 16  2  0
 16 17  1  0
 17 18  1  0
 18 19  2  0
 19 20  1  0
 20 21  2  0
 21 22  1  0
 22 23  1  0
 23 24  1  0
 24 25  1  0
 25 26  1  0
 25 27  1  0
 27 28  1  0
 21 29  1  0
 29 30  2  0
 30 31  1  0
 31 32  1  0
 32 33  1  0
 32 34  1  0
 16 35  1  0
 35 36  2  0
  6  2  2  0
 36  7  1  0
 36 13  1  0
 30 18  1  0
 28 22  1  0
M  END
>  <Compound_ID>  (239) 
CHEMBL3669140

>  <Molecule Name>  (239) 
nan

>  <Molecular Weight>  (239) 
505.64

>  <AlogP>  (239) 
5.70

>  <Smiles>  (239) 
Cc1occc1-c1c(C(N)=O)sc2cnc(Nc3ccc(C4CCN(C)CC4)cc3OC(C)C)nc12

>  <Standard Type>  (239) 
IC50

>  <Standard Relation>  (239) 
'='

>  <Standard Units>  (239) 
nM

>  <Standard Value>  (239) 
17.0

>  <Assay ChEMBL ID>  (239) 
CHEMBL3887055

>  <Assay Description>  (239) 
In Vitro Inhibition Assay: The reagents used have the following composition: Enzyme buffer (EB): 50 mM HEPES (pH: 7.0) (Sigma H7523), 100 mM NaCl (Sigma S7653), NaN.sub.3 at 0.01% (Sigma S8032), BSA at 0.005% (Sigma A2153), 0.05 mM sodium orthovanadate (Calbiochem 567540). Detection buffer (DB): 50 mM HEPES (pH: 7.0), BSA at 0.1%, 0.8 M KF (Fluka 60239), 20 mM EDTA (Sigma E5134).The peptide used is the one described in Biochemistry, 2005, 44, 8533-8542; A-21-K(biotin)NH.sub.2, obtained from NeoMPS (reference SP081233). All the HTRF reagents Mab PT66-K (61T66KLB) and streptavidin-XL665 (610SAXLB), and the SEB reagent, are purchased from Cisbio.The test is carried out in a 384-well plate (Greiner 784076). The serial dilutions are carried out in pure DMSO, and then an intermediate one-in-three dilution in water is carried out, with 1 microliter of each concentration being distributed, all these operations being performed using the Zephyr apparatus (Caliper Life Sciences).

>  <BAO Format ID>  (239) 
BAO_0000357

>  <BAO Label>  (239) 
single protein format

>  <Assay Organism>  (239) 
None

>  <Target ChEMBL ID>  (239) 
CHEMBL4247

>  <Target Name>  (239) 
ALK tyrosine kinase receptor

>  <Target Organism>  (239) 
Homo sapiens

>  <Target Type>  (239) 
SINGLE PROTEIN

>  <Document ChEMBL ID>  (239) 
CHEMBL3639289

>  <Source Description>  (239) 
BindingDB Database

>  <Document Journal>  (239) 
nan

>  <Document Year>  (239) 
2015.0

>  <Active>  (239) 
1.0

>  <bits>  (239) 
<rdkit.DataStructs.cDataStructs.ExplicitBitVect object at 0x000002422F18A8F0>

>  <Group>  (239) 
G2

$$$$

     RDKit          2D

 38 42  0  0  0  0  0  0  0  0999 V2000
   -4.5577    0.2855    0.0000 C   0  0  0  0  0  0  0  0  0  0  0  0
   -3.4430   -0.7182    0.0000 O   0  0  0  0  0  0  0  0  0  0  0  0
   -3.7548   -2.1855    0.0000 C   0  0  0  0  0  0  0  0  0  0  0  0
   -5.1814   -2.6490    0.0000 N   0  0  0  0  0  0  0  0  0  0  0  0
   -5.4933   -4.1162    0.0000 C   0  0  0  0  0  0  0  0  0  0  0  0
   -4.3786   -5.1199    0.0000 C   0  0  0  0  0  0  0  0  0  0  0  0
   -2.9520   -4.6564    0.0000 C   0  0  0  0  0  0  0  0  0  0  0  0
   -2.6401   -3.1891    0.0000 C   0  0  0  0  0  0  0  0  0  0  0  0
   -1.2135   -2.7256    0.0000 C   0  0  0  0  0  0  0  0  0  0  0  0
   -0.0000   -3.6073    0.0000 C   0  0  0  0  0  0  0  0  0  0  0  0
    0.0000   -5.1073    0.0000 C   0  0  0  0  0  0  0  0  0  0  0  0
    1.2990   -5.8573    0.0000 N   0  0  0  0  0  0  0  0  0  0  0  0
   -1.2990   -5.8573    0.0000 O   0  0  0  0  0  0  0  0  0  0  0  0
    1.2135   -2.7256    0.0000 S   0  0  0  0  0  0  0  0  0  0  0  0
    0.7500   -1.2990    0.0000 C   0  0  0  0  0  0  0  0  0  0  0  0
    1.5000    0.0000    0.0000 C   0  0  0  0  0  0  0  0  0  0  0  0
    0.7500    1.2990    0.0000 N   0  0  0  0  0  0  0  0  0  0  0  0
   -0.7500    1.2990    0.0000 C   0  0  0  0  0  0  0  0  0  0  0  0
   -1.5000    2.5981    0.0000 N   0  0  0  0  0  0  0  0  0  0  0  0
   -0.7500    3.8971    0.0000 C   0  0  0  0  0  0  0  0  0  0  0  0
    0.7500    3.8971    0.0000 C   0  0  0  0  0  0  0  0  0  0  0  0
    1.5000    5.1962    0.0000 C   0  0  0  0  0  0  0  0  0  0  0  0
    3.0000    5.1962    0.0000 C   0  0  0  0  0  0  0  0  0  0  0  0
    0.7500    6.4952    0.0000 C   0  0  0  0  0  0  0  0  0  0  0  0
    1.5000    7.7942    0.0000 N   0  0  0  0  0  0  0  0  0  0  0  0
    0.8899    9.1645    0.0000 C   0  0  0  0  0  0  0  0  0  0  0  0
    2.0046   10.1682    0.0000 C   0  0  0  0  0  0  0  0  0  0  0  0
    3.3037    9.4182    0.0000 N   0  0  0  0  0  0  0  0  0  0  0  0
    2.9918    7.9510    0.0000 C   0  0  0  0  0  0  0  0  0  0  0  0
    3.9955    6.8363    0.0000 C   0  0  0  0  0  0  0  0  0  0  0  0
   -0.7500    6.4952    0.0000 C   0  0  0  0  0  0  0  0  0  0  0  0
   -1.5000    5.1962    0.0000 C   0  0  0  0  0  0  0  0  0  0  0  0
   -3.0000    5.1962    0.0000 O   0  0  0  0  0  0  0  0  0  0  0  0
   -3.7500    6.4952    0.0000 C   0  0  0  0  0  0  0  0  0  0  0  0
   -5.2500    6.4952    0.0000 C   0  0  0  0  0  0  0  0  0  0  0  0
   -3.0000    7.7942    0.0000 C   0  0  0  0  0  0  0  0  0  0  0  0
   -1.5000    0.0000    0.0000 N   0  0  0  0  0  0  0  0  0  0  0  0
   -0.7500   -1.2990    0.0000 C   0  0  0  0  0  0  0  0  0  0  0  0
  1  2  1  0
  2  3  1  0
  3  4  2  0
  4  5  1  0
  5  6  2  0
  6  7  1  0
  7  8  2  0
  8  9  1  0
  9 10  2  0
 10 11  1  0
 11 12  1  0
 11 13  2  0
 10 14  1  0
 14 15  1  0
 15 16  2  0
 16 17  1  0
 17 18  2  0
 18 19  1  0
 19 20  1  0
 20 21  2  0
 21 22  1  0
 22 23  1  0
 22 24  2  0
 24 25  1  0
 25 26  1  0
 26 27  2  0
 27 28  1  0
 28 29  2  0
 29 30  1  0
 24 31  1  0
 31 32  2  0
 32 33  1  0
 33 34  1  0
 34 35  1  0
 34 36  1  0
 18 37  1  0
 37 38  2  0
  8  3  1  0
 38  9  1  0
 38 15  1  0
 32 20  1  0
 29 25  1  0
M  END
>  <Compound_ID>  (240) 
CHEMBL3669145

>  <Molecule Name>  (240) 
nan

>  <Molecular Weight>  (240) 
529.63

>  <AlogP>  (240) 
5.19

>  <Smiles>  (240) 
COc1ncccc1-c1c(C(N)=O)sc2cnc(Nc3cc(C)c(-n4ccnc4C)cc3OC(C)C)nc12

>  <Standard Type>  (240) 
IC50

>  <Standard Relation>  (240) 
'='

>  <Standard Units>  (240) 
nM

>  <Standard Value>  (240) 
65.0

>  <Assay ChEMBL ID>  (240) 
CHEMBL3887055

>  <Assay Description>  (240) 
In Vitro Inhibition Assay: The reagents used have the following composition: Enzyme buffer (EB): 50 mM HEPES (pH: 7.0) (Sigma H7523), 100 mM NaCl (Sigma S7653), NaN.sub.3 at 0.01% (Sigma S8032), BSA at 0.005% (Sigma A2153), 0.05 mM sodium orthovanadate (Calbiochem 567540). Detection buffer (DB): 50 mM HEPES (pH: 7.0), BSA at 0.1%, 0.8 M KF (Fluka 60239), 20 mM EDTA (Sigma E5134).The peptide used is the one described in Biochemistry, 2005, 44, 8533-8542; A-21-K(biotin)NH.sub.2, obtained from NeoMPS (reference SP081233). All the HTRF reagents Mab PT66-K (61T66KLB) and streptavidin-XL665 (610SAXLB), and the SEB reagent, are purchased from Cisbio.The test is carried out in a 384-well plate (Greiner 784076). The serial dilutions are carried out in pure DMSO, and then an intermediate one-in-three dilution in water is carried out, with 1 microliter of each concentration being distributed, all these operations being performed using the Zephyr apparatus (Caliper Life Sciences).

>  <BAO Format ID>  (240) 
BAO_0000357

>  <BAO Label>  (240) 
single protein format

>  <Assay Organism>  (240) 
None

>  <Target ChEMBL ID>  (240) 
CHEMBL4247

>  <Target Name>  (240) 
ALK tyrosine kinase receptor

>  <Target Organism>  (240) 
Homo sapiens

>  <Target Type>  (240) 
SINGLE PROTEIN

>  <Document ChEMBL ID>  (240) 
CHEMBL3639289

>  <Source Description>  (240) 
BindingDB Database

>  <Document Journal>  (240) 
nan

>  <Document Year>  (240) 
2015.0

>  <Active>  (240) 
1.0

>  <bits>  (240) 
<rdkit.DataStructs.cDataStructs.ExplicitBitVect object at 0x000002422F188AC0>

>  <Group>  (240) 
G2

$$$$

     RDKit          2D

 36 40  0  0  0  0  0  0  0  0999 V2000
    3.7500   -6.4952    0.0000 C   0  0  0  0  0  0  0  0  0  0  0  0
    3.0000   -5.1962    0.0000 O   0  0  0  0  0  0  0  0  0  0  0  0
    1.5000   -5.1962    0.0000 C   0  0  0  0  0  0  0  0  0  0  0  0
    0.7500   -6.4952    0.0000 C   0  0  0  0  0  0  0  0  0  0  0  0
   -0.7500   -6.4952    0.0000 C   0  0  0  0  0  0  0  0  0  0  0  0
   -1.5000   -7.7942    0.0000 N   0  0  0  0  0  0  0  0  0  0  0  0
   -3.0000   -7.7942    0.0000 C   0  0  0  0  0  0  0  0  0  0  0  0
   -3.7500   -9.0933    0.0000 C   0  0  0  0  0  0  0  0  0  0  0  0
   -3.0000  -10.3923    0.0000 N   0  0  0  0  0  0  0  0  0  0  0  0
   -3.7500  -11.6913    0.0000 C   0  0  0  0  0  0  0  0  0  0  0  0
   -5.2500  -11.6913    0.0000 C   0  0  0  0  0  0  0  0  0  0  0  0
   -6.0000  -12.9904    0.0000 C   0  0  0  0  0  0  0  0  0  0  0  0
   -6.0000  -10.3923    0.0000 O   0  0  0  0  0  0  0  0  0  0  0  0
   -1.5000  -10.3923    0.0000 C   0  0  0  0  0  0  0  0  0  0  0  0
   -0.7500   -9.0933    0.0000 C   0  0  0  0  0  0  0  0  0  0  0  0
   -1.5000   -5.1962    0.0000 C   0  0  0  0  0  0  0  0  0  0  0  0
   -0.7500   -3.8971    0.0000 C   0  0  0  0  0  0  0  0  0  0  0  0
    0.7500   -3.8971    0.0000 C   0  0  0  0  0  0  0  0  0  0  0  0
    1.5000   -2.5981    0.0000 N   0  0  0  0  0  0  0  0  0  0  0  0
    0.7500   -1.2990    0.0000 C   0  0  0  0  0  0  0  0  0  0  0  0
    1.5000    0.0000    0.0000 N   0  0  0  0  0  0  0  0  0  0  0  0
    0.7500    1.2990    0.0000 C   0  0  0  0  0  0  0  0  0  0  0  0
   -0.7500    1.2990    0.0000 C   0  0  0  0  0  0  0  0  0  0  0  0
   -1.7537    2.4138    0.0000 C   0  0  0  0  0  0  0  0  0  0  0  0
   -3.1240    1.8037    0.0000 C   0  0  0  0  0  0  0  0  0  0  0  0
   -2.9672    0.3119    0.0000 C   0  0  0  0  0  0  0  0  0  0  0  0
   -4.0819   -0.6918    0.0000 C   0  0  0  0  0  0  0  0  0  0  0  0
   -5.5085   -0.2283    0.0000 C   0  0  0  0  0  0  0  0  0  0  0  0
   -6.6232   -1.2320    0.0000 C   0  0  0  0  0  0  0  0  0  0  0  0
   -6.3114   -2.6992    0.0000 C   0  0  0  0  0  0  0  0  0  0  0  0
   -4.8848   -3.1627    0.0000 C   0  0  0  0  0  0  0  0  0  0  0  0
   -3.7701   -2.1590    0.0000 C   0  0  0  0  0  0  0  0  0  0  0  0
   -2.3435   -2.6226    0.0000 O   0  0  0  0  0  0  0  0  0  0  0  0
   -2.0316   -4.0898    0.0000 C   0  0  0  0  0  0  0  0  0  0  0  0
   -1.5000    0.0000    0.0000 N   0  0  0  0  0  0  0  0  0  0  0  0
   -0.7500   -1.2990    0.0000 N   0  0  0  0  0  0  0  0  0  0  0  0
  1  2  1  0
  2  3  1  0
  3  4  2  0
  4  5  1  0
  5  6  1  0
  6  7  1  0
  7  8  1  0
  8  9  1  0
  9 10  1  0
 10 11  1  0
 11 12  1  1
 11 13  1  0
  9 14  1  0
 14 15  1  0
  5 16  2  0
 16 17  1  0
 17 18  2  0
 18 19  1  0
 19 20  1  0
 20 21  1  0
 21 22  2  0
 22 23  1  0
 23 24  2  0
 24 25  1  0
 25 26  2  0
 26 27  1  0
 27 28  2  0
 28 29  1  0
 29 30  2  0
 30 31  1  0
 31 32  2  0
 32 33  1  0
 33 34  1  0
 26 35  1  0
 35 36  1  0
 18  3  1  0
 36 20  2  0
 15  6  1  0
 35 23  1  0
 32 27  1  0
M  END
>  <Compound_ID>  (241) 
CHEMBL1822521

>  <Molecule Name>  (241) 
nan

>  <Molecular Weight>  (241) 
488.59

>  <AlogP>  (241) 
3.66

>  <Smiles>  (241) 
COc1cc(N2CCN(C[C@@H](C)O)CC2)ccc1Nc1ncc2ccc(-c3ccccc3OC)n2n1

>  <Standard Type>  (241) 
IC50

>  <Standard Relation>  (241) 
'='

>  <Standard Units>  (241) 
nM

>  <Standard Value>  (241) 
3.8

>  <Assay ChEMBL ID>  (241) 
CHEMBL1825977

>  <Assay Description>  (241) 
Inhibition of human recombinant ALK assessed as phosphorylated product using PLC-gamma/GST substrate by modified ELISA method

>  <BAO Format ID>  (241) 
BAO_0000357

>  <BAO Label>  (241) 
single protein format

>  <Assay Organism>  (241) 
Homo sapiens

>  <Target ChEMBL ID>  (241) 
CHEMBL4247

>  <Target Name>  (241) 
ALK tyrosine kinase receptor

>  <Target Organism>  (241) 
Homo sapiens

>  <Target Type>  (241) 
SINGLE PROTEIN

>  <Document ChEMBL ID>  (241) 
CHEMBL1821719

>  <Source Description>  (241) 
Scientific Literature

>  <Document Journal>  (241) 
J Med Chem

>  <Document Year>  (241) 
2011.0

>  <Active>  (241) 
1.0

>  <bits>  (241) 
<rdkit.DataStructs.cDataStructs.ExplicitBitVect object at 0x000002422F18A570>

>  <Group>  (241) 
G2

$$$$

     RDKit          2D

 31 34  0  0  0  0  0  0  0  0999 V2000
    2.6491   -3.5623    0.0000 C   0  0  0  0  0  0  0  0  0  0  0  0
    1.5000   -2.5981    0.0000 C   0  0  0  0  0  0  0  0  0  0  0  0
    2.6491   -1.6339    0.0000 C   0  0  0  0  0  0  0  0  0  0  0  0
    0.7500   -1.2990    0.0000 C   0  0  0  0  0  0  0  0  0  0  0  0
    1.5000    0.0000    0.0000 C   0  0  0  0  0  0  0  0  0  0  0  0
    0.7500    1.2990    0.0000 C   0  0  0  0  0  0  0  0  0  0  0  0
    1.5000    2.5981    0.0000 O   0  0  0  0  0  0  0  0  0  0  0  0
    3.0000    2.5981    0.0000 C   0  0  0  0  0  0  0  0  0  0  0  0
    3.7500    3.8971    0.0000 C   0  0  0  0  0  0  0  0  0  0  0  0
    3.0000    5.1962    0.0000 O   0  0  0  0  0  0  0  0  0  0  0  0
    5.2500    3.8971    0.0000 N   0  0  0  0  0  0  0  0  0  0  0  0
    6.0000    5.1962    0.0000 C   0  0  0  0  0  0  0  0  0  0  0  0
    7.5000    5.1962    0.0000 C   0  0  0  0  0  0  0  0  0  0  0  0
    8.2500    6.4952    0.0000 C   0  0  0  0  0  0  0  0  0  0  0  0
    9.0000    7.7942    0.0000 N   0  0  0  0  0  0  0  0  0  0  0  0
   -0.7500    1.2990    0.0000 C   0  0  0  0  0  0  0  0  0  0  0  0
   -1.5000    0.0000    0.0000 C   0  0  0  0  0  0  0  0  0  0  0  0
   -0.7500   -1.2990    0.0000 C   0  0  0  0  0  0  0  0  0  0  0  0
   -1.5000   -2.5981    0.0000 C   0  0  0  0  0  0  0  0  0  0  0  0
   -3.0000   -2.5981    0.0000 O   0  0  0  0  0  0  0  0  0  0  0  0
   -0.7500   -3.8971    0.0000 C   0  0  0  0  0  0  0  0  0  0  0  0
    0.7500   -3.8971    0.0000 C   0  0  0  0  0  0  0  0  0  0  0  0
    1.2135   -5.3237    0.0000 N   0  0  0  0  0  0  0  0  0  0  0  0
    0.0000   -6.2054    0.0000 C   0  0  0  0  0  0  0  0  0  0  0  0
   -0.1568   -7.6972    0.0000 C   0  0  0  0  0  0  0  0  0  0  0  0
   -1.5271   -8.3073    0.0000 C   0  0  0  0  0  0  0  0  0  0  0  0
   -1.6839   -9.7990    0.0000 C   0  0  0  0  0  0  0  0  0  0  0  0
   -1.8407  -11.2908    0.0000 N   0  0  0  0  0  0  0  0  0  0  0  0
   -2.7406   -7.4256    0.0000 C   0  0  0  0  0  0  0  0  0  0  0  0
   -2.5838   -5.9338    0.0000 C   0  0  0  0  0  0  0  0  0  0  0  0
   -1.2135   -5.3237    0.0000 C   0  0  0  0  0  0  0  0  0  0  0  0
  1  2  1  0
  2  3  1  0
  2  4  1  0
  4  5  2  0
  5  6  1  0
  6  7  1  0
  7  8  1  0
  8  9  1  0
  9 10  2  0
  9 11  1  0
 11 12  1  0
 12 13  1  0
 13 14  1  0
 14 15  3  0
  6 16  2  0
 16 17  1  0
 17 18  2  0
 18 19  1  0
 19 20  2  0
 19 21  1  0
 21 22  2  0
 22 23  1  0
 23 24  1  0
 24 25  2  0
 25 26  1  0
 26 27  1  0
 27 28  3  0
 26 29  2  0
 29 30  1  0
 30 31  2  0
 22  2  1  0
 31 24  1  0
 18  4  1  0
 31 21  1  0
M  END
>  <Compound_ID>  (242) 
CHEMBL3903395

>  <Molecule Name>  (242) 
nan

>  <Molecular Weight>  (242) 
412.45

>  <AlogP>  (242) 
3.32

>  <Smiles>  (242) 
CC1(C)c2cc(OCC(=O)NCCC#N)ccc2C(=O)c2c1[nH]c1cc(C#N)ccc21

>  <Standard Type>  (242) 
IC50

>  <Standard Relation>  (242) 
'='

>  <Standard Units>  (242) 
nM

>  <Standard Value>  (242) 
84.68

>  <Assay ChEMBL ID>  (242) 
CHEMBL3887074

>  <Assay Description>  (242) 
Inhibition Assay: ALK-inhibiting activity was measured by following an activity of inhibiting phosphorylation by biotinylated peptide (EGPWLEEEEEAYGWMDF). For the detection of phosphorylation of the biotinylated peptide, time-resolved fluorescence measurement was performed using an anti-phosphorylated tyrosine antibody labeled with europium cryptate and streptavidin conjugated to XL665, i.e., an allophycocyanin derivative.

>  <BAO Format ID>  (242) 
BAO_0000357

>  <BAO Label>  (242) 
single protein format

>  <Assay Organism>  (242) 
Homo sapiens

>  <Target ChEMBL ID>  (242) 
CHEMBL4247

>  <Target Name>  (242) 
ALK tyrosine kinase receptor

>  <Target Organism>  (242) 
Homo sapiens

>  <Target Type>  (242) 
SINGLE PROTEIN

>  <Document ChEMBL ID>  (242) 
CHEMBL3886150

>  <Source Description>  (242) 
BindingDB Database

>  <Document Journal>  (242) 
nan

>  <Document Year>  (242) 
2015.0

>  <Active>  (242) 
1.0

>  <bits>  (242) 
<rdkit.DataStructs.cDataStructs.ExplicitBitVect object at 0x000002422F1894D0>

>  <Group>  (242) 
G2

$$$$

     RDKit          2D

 40 44  0  0  0  0  0  0  0  0999 V2000
    9.0933  -10.3573    0.0000 C   0  0  0  0  0  0  0  0  0  0  0  0
    7.7942  -11.1073    0.0000 C   0  0  0  0  0  0  0  0  0  0  0  0
    6.4952  -10.3573    0.0000 C   0  0  0  0  0  0  0  0  0  0  0  0
    5.1962  -11.1073    0.0000 N   0  0  0  0  0  0  0  0  0  0  0  0
    3.8971  -10.3573    0.0000 S   0  0  0  0  0  0  0  0  0  0  0  0
    3.1471  -11.6563    0.0000 O   0  0  0  0  0  0  0  0  0  0  0  0
    4.6471   -9.0583    0.0000 O   0  0  0  0  0  0  0  0  0  0  0  0
    2.5981   -9.6073    0.0000 C   0  0  0  0  0  0  0  0  0  0  0  0
    1.2990  -10.3573    0.0000 C   0  0  0  0  0  0  0  0  0  0  0  0
   -0.0000   -9.6073    0.0000 C   0  0  0  0  0  0  0  0  0  0  0  0
   -0.0000   -8.1073    0.0000 C   0  0  0  0  0  0  0  0  0  0  0  0
    1.2990   -7.3573    0.0000 C   0  0  0  0  0  0  0  0  0  0  0  0
    1.2990   -5.8573    0.0000 C   0  0  0  0  0  0  0  0  0  0  0  0
    2.5981   -5.1073    0.0000 O   0  0  0  0  0  0  0  0  0  0  0  0
   -0.0000   -5.1073    0.0000 N   0  0  0  0  0  0  0  0  0  0  0  0
   -0.0000   -3.6073    0.0000 C   0  0  0  0  0  0  0  0  0  0  0  0
    1.2135   -2.7256    0.0000 N   0  0  0  0  0  0  0  0  0  0  0  0
    0.7500   -1.2990    0.0000 C   0  0  0  0  0  0  0  0  0  0  0  0
    1.5000    0.0000    0.0000 C   0  0  0  0  0  0  0  0  0  0  0  0
    0.7500    1.2990    0.0000 C   0  0  0  0  0  0  0  0  0  0  0  0
    1.5000    2.5981    0.0000 C   0  0  0  0  0  0  0  0  0  0  0  0
    3.0000    2.5981    0.0000 N   0  0  0  0  0  0  0  0  0  0  0  0
    3.7500    1.2990    0.0000 C   0  0  0  0  0  0  0  0  0  0  0  0
    5.2500    1.2990    0.0000 C   0  0  0  0  0  0  0  0  0  0  0  0
    6.0000    2.5981    0.0000 C   0  0  0  0  0  0  0  0  0  0  0  0
    5.2500    3.8971    0.0000 C   0  0  0  0  0  0  0  0  0  0  0  0
    3.7500    3.8971    0.0000 C   0  0  0  0  0  0  0  0  0  0  0  0
   -0.7500    1.2990    0.0000 C   0  0  0  0  0  0  0  0  0  0  0  0
   -1.5000    0.0000    0.0000 C   0  0  0  0  0  0  0  0  0  0  0  0
   -0.7500   -1.2990    0.0000 C   0  0  0  0  0  0  0  0  0  0  0  0
   -1.2135   -2.7256    0.0000 N   0  0  0  0  0  0  0  0  0  0  0  0
   -2.6401   -3.1891    0.0000 C   0  0  0  0  0  0  0  0  0  0  0  0
   -3.7548   -2.1855    0.0000 C   0  0  0  0  0  0  0  0  0  0  0  0
   -5.1814   -2.6490    0.0000 C   0  0  0  0  0  0  0  0  0  0  0  0
   -5.4933   -4.1162    0.0000 C   0  0  0  0  0  0  0  0  0  0  0  0
   -6.9199   -4.5797    0.0000 C   0  0  0  0  0  0  0  0  0  0  0  0
   -8.0346   -3.5760    0.0000 O   0  0  0  0  0  0  0  0  0  0  0  0
   -4.3786   -5.1199    0.0000 C   0  0  0  0  0  0  0  0  0  0  0  0
   -2.9520   -4.6564    0.0000 C   0  0  0  0  0  0  0  0  0  0  0  0
    2.5981   -8.1073    0.0000 C   0  0  0  0  0  0  0  0  0  0  0  0
  1  2  2  0
  2  3  1  0
  3  4  1  0
  4  5  1  0
  5  6  2  0
  5  7  2  0
  5  8  1  0
  8  9  2  0
  9 10  1  0
 10 11  2  0
 11 12  1  0
 12 13  1  0
 13 14  2  0
 13 15  1  0
 15 16  2  0
 16 17  1  0
 17 18  1  0
 18 19  2  0
 19 20  1  0
 20 21  1  0
 21 22  1  0
 22 23  1  0
 23 24  1  0
 24 25  1  0
 25 26  1  0
 26 27  1  0
 20 28  2  0
 28 29  1  0
 29 30  2  0
 30 31  1  0
 32 31  1  6
 32 33  1  0
 33 34  1  0
 34 35  1  0
 35 36  1  6
 36 37  1  0
 35 38  1  0
 38 39  1  0
 12 40  2  0
 40  8  1  0
 31 16  1  0
 39 32  1  0
 30 18  1  0
 27 22  1  0
M  END
>  <Compound_ID>  (243) 
CHEMBL2172322

>  <Molecule Name>  (243) 
nan

>  <Molecular Weight>  (243) 
565.74

>  <AlogP>  (243) 
3.88

>  <Smiles>  (243) 
C=CCNS(=O)(=O)c1cccc(C(=O)/N=c2\[nH]c3cc(CN4CCCCC4)ccc3n2[C@H]2CC[C@@H](CO)CC2)c1

>  <Standard Type>  (243) 
IC50

>  <Standard Relation>  (243) 
'='

>  <Standard Units>  (243) 
nM

>  <Standard Value>  (243) 
5.0

>  <Assay ChEMBL ID>  (243) 
CHEMBL2176371

>  <Assay Description>  (243) 
Inhibition of ALK enzyme

>  <BAO Format ID>  (243) 
BAO_0000357

>  <BAO Label>  (243) 
single protein format

>  <Assay Organism>  (243) 
None

>  <Target ChEMBL ID>  (243) 
CHEMBL4247

>  <Target Name>  (243) 
ALK tyrosine kinase receptor

>  <Target Organism>  (243) 
Homo sapiens

>  <Target Type>  (243) 
SINGLE PROTEIN

>  <Document ChEMBL ID>  (243) 
CHEMBL2169770

>  <Source Description>  (243) 
Scientific Literature

>  <Document Journal>  (243) 
J Med Chem

>  <Document Year>  (243) 
2012.0

>  <Active>  (243) 
1.0

>  <bits>  (243) 
<rdkit.DataStructs.cDataStructs.ExplicitBitVect object at 0x000002422F188580>

>  <Group>  (243) 
G2

$$$$

     RDKit          2D

 45 48  0  0  0  0  0  0  0  0999 V2000
    3.7500   -1.2990    0.0000 C   0  0  0  0  0  0  0  0  0  0  0  0
    3.0000    0.0000    0.0000 O   0  0  0  0  0  0  0  0  0  0  0  0
    1.5000    0.0000    0.0000 C   0  0  0  0  0  0  0  0  0  0  0  0
    0.7500   -1.2990    0.0000 C   0  0  0  0  0  0  0  0  0  0  0  0
   -0.7500   -1.2990    0.0000 C   0  0  0  0  0  0  0  0  0  0  0  0
   -1.5000    0.0000    0.0000 C   0  0  0  0  0  0  0  0  0  0  0  0
   -3.0000    0.0000    0.0000 N   0  0  0  0  0  0  0  0  0  0  0  0
   -3.7500    1.2990    0.0000 C   0  0  0  0  0  0  0  0  0  0  0  0
   -3.0000    2.5981    0.0000 O   0  0  0  0  0  0  0  0  0  0  0  0
   -5.2500    1.2990    0.0000 C   0  0  0  0  0  0  0  0  0  0  0  0
   -6.0000    2.5981    0.0000 N   0  0  0  0  0  0  0  0  0  0  0  0
   -7.5000    2.5981    0.0000 C   0  0  0  0  0  0  0  0  0  0  0  0
   -8.2500    1.2990    0.0000 O   0  0  0  0  0  0  0  0  0  0  0  0
   -8.2500    3.8971    0.0000 C   0  0  0  0  0  0  0  0  0  0  0  0
   -7.5000    5.1962    0.0000 C   0  0  0  0  0  0  0  0  0  0  0  0
   -8.2500    6.4952    0.0000 C   0  0  0  0  0  0  0  0  0  0  0  0
   -7.5000    7.7942    0.0000 C   0  0  0  0  0  0  0  0  0  0  0  0
   -6.0000    7.7942    0.0000 C   0  0  0  0  0  0  0  0  0  0  0  0
   -8.2500    9.0933    0.0000 C   0  0  0  0  0  0  0  0  0  0  0  0
   -9.7500    6.4952    0.0000 C   0  0  0  0  0  0  0  0  0  0  0  0
  -10.5000    7.7942    0.0000 O   0  0  0  0  0  0  0  0  0  0  0  0
  -10.5000    5.1962    0.0000 C   0  0  0  0  0  0  0  0  0  0  0  0
   -9.7500    3.8971    0.0000 C   0  0  0  0  0  0  0  0  0  0  0  0
  -10.5000    2.5981    0.0000 O   0  0  0  0  0  0  0  0  0  0  0  0
   -0.7500    1.2990    0.0000 C   0  0  0  0  0  0  0  0  0  0  0  0
    0.7500    1.2990    0.0000 C   0  0  0  0  0  0  0  0  0  0  0  0
    1.5000    2.5981    0.0000 N   0  0  0  0  0  0  0  0  0  0  0  0
    3.0000    2.5981    0.0000 C   0  0  0  0  0  0  0  0  0  0  0  0
    3.7500    1.2990    0.0000 N   0  0  0  0  0  0  0  0  0  0  0  0
    5.2500    1.2990    0.0000 C   0  0  0  0  0  0  0  0  0  0  0  0
    6.0000    2.5981    0.0000 C   0  0  0  0  0  0  0  0  0  0  0  0
    7.5000    2.5981    0.0000 Cl  0  0  0  0  0  0  0  0  0  0  0  0
    5.2500    3.8971    0.0000 C   0  0  0  0  0  0  0  0  0  0  0  0
    6.0000    5.1962    0.0000 N   0  0  0  0  0  0  0  0  0  0  0  0
    5.2500    6.4952    0.0000 C   0  0  0  0  0  0  0  0  0  0  0  0
    3.7500    6.4952    0.0000 C   0  0  0  0  0  0  0  0  0  0  0  0
    3.0000    7.7942    0.0000 C   0  0  0  0  0  0  0  0  0  0  0  0
    3.7500    9.0933    0.0000 C   0  0  0  0  0  0  0  0  0  0  0  0
    5.2500    9.0933    0.0000 C   0  0  0  0  0  0  0  0  0  0  0  0
    6.0000    7.7942    0.0000 C   0  0  0  0  0  0  0  0  0  0  0  0
    7.5000    7.7942    0.0000 P   0  0  0  0  0  0  0  0  0  0  0  0
    7.5000    6.2942    0.0000 C   0  0  0  0  0  0  0  0  0  0  0  0
    7.5000    9.2942    0.0000 C   0  0  0  0  0  0  0  0  0  0  0  0
    9.0000    7.7942    0.0000 O   0  0  0  0  0  0  0  0  0  0  0  0
    3.7500    3.8971    0.0000 N   0  0  0  0  0  0  0  0  0  0  0  0
  1  2  1  0
  2  3  1  0
  3  4  2  0
  4  5  1  0
  5  6  2  0
  6  7  1  0
  7  8  1  0
  8  9  2  0
  8 10  1  0
 10 11  1  0
 11 12  1  0
 12 13  2  0
 12 14  1  0
 14 15  2  0
 15 16  1  0
 16 17  1  0
 17 18  1  0
 17 19  1  0
 16 20  2  0
 20 21  1  0
 20 22  1  0
 22 23  2  0
 23 24  1  0
  6 25  1  0
 25 26  2  0
 26 27  1  0
 27 28  1  0
 28 29  2  0
 29 30  1  0
 30 31  2  0
 31 32  1  0
 31 33  1  0
 33 34  1  0
 34 35  1  0
 35 36  2  0
 36 37  1  0
 37 38  2  0
 38 39  1  0
 39 40  2  0
 40 41  1  0
 41 42  1  0
 41 43  1  0
 41 44  2  0
 33 45  2  0
 26  3  1  0
 45 28  1  0
 23 14  1  0
 40 35  1  0
M  END
>  <Compound_ID>  (244) 
CHEMBL4172048

>  <Molecule Name>  (244) 
nan

>  <Molecular Weight>  (244) 
653.08

>  <AlogP>  (244) 
5.78

>  <Smiles>  (244) 
COc1ccc(NC(=O)CNC(=O)c2cc(C(C)C)c(O)cc2O)cc1Nc1ncc(Cl)c(Nc2ccccc2P(C)(C)=O)n1

>  <Standard Type>  (244) 
IC50

>  <Standard Relation>  (244) 
'='

>  <Standard Units>  (244) 
nM

>  <Standard Value>  (244) 
5.0

>  <Assay ChEMBL ID>  (244) 
CHEMBL4146209

>  <Assay Description>  (244) 
Inhibition of recombinant ALK L1196M mutant (unknown origin) using poly (Glu,Tyr) 4:1 as substrate incubated for 60 mins by ELISA

>  <BAO Format ID>  (244) 
BAO_0000357

>  <BAO Label>  (244) 
single protein format

>  <Assay Organism>  (244) 
Homo sapiens

>  <Target ChEMBL ID>  (244) 
CHEMBL4247

>  <Target Name>  (244) 
ALK tyrosine kinase receptor

>  <Target Organism>  (244) 
Homo sapiens

>  <Target Type>  (244) 
SINGLE PROTEIN

>  <Document ChEMBL ID>  (244) 
CHEMBL4145454

>  <Source Description>  (244) 
Scientific Literature

>  <Document Journal>  (244) 
Eur J Med Chem

>  <Document Year>  (244) 
2018.0

>  <Active>  (244) 
1.0

>  <bits>  (244) 
<rdkit.DataStructs.cDataStructs.ExplicitBitVect object at 0x000002422F189FC0>

>  <Group>  (244) 
G2

$$$$

     RDKit          2D

 34 37  0  0  0  0  0  0  0  0999 V2000
   -3.7500    3.8971    0.0000 C   0  0  0  0  0  0  0  0  0  0  0  0
   -2.2500    3.8971    0.0000 C   0  0  0  0  0  0  0  0  0  0  0  0
   -1.5000    5.1962    0.0000 C   0  0  0  0  0  0  0  0  0  0  0  0
   -1.5000    2.5981    0.0000 S   0  0  0  0  0  0  0  0  0  0  0  0
   -0.2010    3.3481    0.0000 O   0  0  0  0  0  0  0  0  0  0  0  0
   -2.7990    1.8481    0.0000 O   0  0  0  0  0  0  0  0  0  0  0  0
   -0.7500    1.2990    0.0000 C   0  0  0  0  0  0  0  0  0  0  0  0
   -1.5000   -0.0000    0.0000 C   0  0  0  0  0  0  0  0  0  0  0  0
   -0.7500   -1.2990    0.0000 C   0  0  0  0  0  0  0  0  0  0  0  0
    0.7500   -1.2990    0.0000 C   0  0  0  0  0  0  0  0  0  0  0  0
    1.5000   -0.0000    0.0000 C   0  0  0  0  0  0  0  0  0  0  0  0
    0.7500    1.2990    0.0000 C   0  0  0  0  0  0  0  0  0  0  0  0
    1.5000    2.5981    0.0000 N   0  0  0  0  0  0  0  0  0  0  0  0
    3.0000    2.5981    0.0000 C   0  0  0  0  0  0  0  0  0  0  0  0
    3.7500    1.2990    0.0000 N   0  0  0  0  0  0  0  0  0  0  0  0
    5.2500    1.2990    0.0000 C   0  0  0  0  0  0  0  0  0  0  0  0
    6.0000   -0.0000    0.0000 N   0  0  0  0  0  0  0  0  0  0  0  0
    7.5000   -0.0000    0.0000 C   0  0  0  0  0  0  0  0  0  0  0  0
    8.2500   -1.2990    0.0000 C   0  0  0  0  0  0  0  0  0  0  0  0
    9.7500   -1.2990    0.0000 C   0  0  0  0  0  0  0  0  0  0  0  0
   10.5000   -0.0000    0.0000 C   0  0  0  0  0  0  0  0  0  0  0  0
    9.7500    1.2990    0.0000 C   0  0  0  0  0  0  0  0  0  0  0  0
   10.5000    2.5981    0.0000 N   0  0  0  0  0  0  0  0  0  0  0  0
   12.0000    2.5981    0.0000 C   0  0  0  0  0  0  0  0  0  0  0  0
   12.7500    1.2990    0.0000 O   0  0  0  0  0  0  0  0  0  0  0  0
   12.7500    3.8971    0.0000 C   0  0  0  0  0  0  0  0  0  0  0  0
   14.1989    4.2853    0.0000 C   0  0  0  0  0  0  0  0  0  0  0  0
   13.8107    5.7342    0.0000 C   0  0  0  0  0  0  0  0  0  0  0  0
   12.3618    5.3460    0.0000 N   0  0  0  0  0  0  0  0  0  0  0  0
    8.2500    1.2990    0.0000 C   0  0  0  0  0  0  0  0  0  0  0  0
    6.0000    2.5981    0.0000 N   0  0  0  0  0  0  0  0  0  0  0  0
    5.2500    3.8971    0.0000 C   0  0  0  0  0  0  0  0  0  0  0  0
    3.7500    3.8971    0.0000 C   0  0  0  0  0  0  0  0  0  0  0  0
    3.0000    5.1962    0.0000 Cl  0  0  0  0  0  0  0  0  0  0  0  0
  1  2  1  0
  2  3  1  0
  2  4  1  0
  4  5  2  0
  4  6  2  0
  4  7  1  0
  7  8  2  0
  8  9  1  0
  9 10  2  0
 10 11  1  0
 11 12  2  0
 12 13  1  0
 13 14  1  0
 14 15  2  0
 15 16  1  0
 16 17  1  0
 17 18  1  0
 18 19  2  0
 19 20  1  0
 20 21  2  0
 21 22  1  0
 22 23  1  0
 23 24  1  0
 24 25  2  0
 24 26  1  0
 26 27  1  0
 27 28  1  0
 28 29  1  0
 22 30  2  0
 16 31  2  0
 31 32  1  0
 32 33  2  0
 33 34  1  0
 12  7  1  0
 33 14  1  0
 30 18  1  0
 29 26  1  0
M  END
>  <Compound_ID>  (245) 
CHEMBL3357451

>  <Molecule Name>  (245) 
nan

>  <Molecular Weight>  (245) 
501.01

>  <AlogP>  (245) 
4.10

>  <Smiles>  (245) 
CC(C)S(=O)(=O)c1ccccc1Nc1nc(Nc2cccc(NC(=O)C3CCN3)c2)ncc1Cl

>  <Standard Type>  (245) 
IC50

>  <Standard Relation>  (245) 
'='

>  <Standard Units>  (245) 
nM

>  <Standard Value>  (245) 
44.2

>  <Assay ChEMBL ID>  (245) 
CHEMBL3364272

>  <Assay Description>  (245) 
Inhibition of ALK (unknown origin) after 60 mins by ELISA

>  <BAO Format ID>  (245) 
BAO_0000357

>  <BAO Label>  (245) 
single protein format

>  <Assay Organism>  (245) 
Homo sapiens

>  <Target ChEMBL ID>  (245) 
CHEMBL4247

>  <Target Name>  (245) 
ALK tyrosine kinase receptor

>  <Target Organism>  (245) 
Homo sapiens

>  <Target Type>  (245) 
SINGLE PROTEIN

>  <Document ChEMBL ID>  (245) 
CHEMBL3351234

>  <Source Description>  (245) 
Scientific Literature

>  <Document Journal>  (245) 
J Med Chem

>  <Document Year>  (245) 
2015.0

>  <Active>  (245) 
1.0

>  <bits>  (245) 
<rdkit.DataStructs.cDataStructs.ExplicitBitVect object at 0x000002422F18BED0>

>  <Group>  (245) 
G2

$$$$

     RDKit          2D

 43 47  0  0  0  0  0  0  0  0999 V2000
    5.2500   -1.2990    0.0000 C   0  0  0  0  0  0  0  0  0  0  0  0
    3.7500   -1.2990    0.0000 C   0  0  0  0  0  0  0  0  0  0  0  0
    3.0000    0.0000    0.0000 N   0  0  0  0  0  0  0  0  0  0  0  0
    3.7500    1.2990    0.0000 C   0  0  0  0  0  0  0  0  0  0  0  0
    5.2500    1.2990    0.0000 C   0  0  0  0  0  0  0  0  0  0  0  0
    1.5000    0.0000    0.0000 C   0  0  0  0  0  0  0  0  0  0  0  0
    0.7500   -1.2990    0.0000 C   0  0  0  0  0  0  0  0  0  0  0  0
   -0.7500   -1.2990    0.0000 C   0  0  0  0  0  0  0  0  0  0  0  0
   -1.5000    0.0000    0.0000 C   0  0  0  0  0  0  0  0  0  0  0  0
   -3.0000    0.0000    0.0000 C   0  0  0  0  0  0  0  0  0  0  0  0
   -3.7500    1.2990    0.0000 C   0  0  0  0  0  0  0  0  0  0  0  0
   -5.2500    1.2990    0.0000 C   0  0  0  0  0  0  0  0  0  0  0  0
   -6.0000    2.5981    0.0000 O   0  0  0  0  0  0  0  0  0  0  0  0
   -5.2500    3.8971    0.0000 C   0  0  0  0  0  0  0  0  0  0  0  0
   -5.2500    5.3971    0.0000 C   0  0  0  0  0  0  0  0  0  0  0  0
   -3.9510    4.6471    0.0000 C   0  0  0  0  0  0  0  0  0  0  0  0
   -6.0000    0.0000    0.0000 C   0  0  0  0  0  0  0  0  0  0  0  0
   -7.5000    0.0000    0.0000 N   0  0  0  0  0  0  0  0  0  0  0  0
   -8.2500   -1.2990    0.0000 C   0  0  0  0  0  0  0  0  0  0  0  0
   -9.7500   -1.2990    0.0000 N   0  0  0  0  0  0  0  0  0  0  0  0
  -10.5000   -2.5981    0.0000 C   0  0  0  0  0  0  0  0  0  0  0  0
   -9.7500   -3.8971    0.0000 C   0  0  0  0  0  0  0  0  0  0  0  0
  -10.5000   -5.1962    0.0000 Cl  0  0  0  0  0  0  0  0  0  0  0  0
   -8.2500   -3.8971    0.0000 C   0  0  0  0  0  0  0  0  0  0  0  0
   -7.5000   -5.1962    0.0000 N   0  0  0  0  0  0  0  0  0  0  0  0
   -6.0000   -5.1962    0.0000 C   0  0  0  0  0  0  0  0  0  0  0  0
   -5.1183   -3.9826    0.0000 C   0  0  0  0  0  0  0  0  0  0  0  0
   -3.6917   -4.4462    0.0000 N   0  0  0  0  0  0  0  0  0  0  0  0
   -2.4782   -3.5645    0.0000 C   0  0  0  0  0  0  0  0  0  0  0  0
   -3.6917   -5.9462    0.0000 N   0  0  0  0  0  0  0  0  0  0  0  0
   -5.1183   -6.4097    0.0000 C   0  0  0  0  0  0  0  0  0  0  0  0
   -5.5818   -7.8363    0.0000 S   0  0  0  0  0  0  0  0  0  0  0  0
   -7.0084   -7.3727    0.0000 O   0  0  0  0  0  0  0  0  0  0  0  0
   -4.1553   -8.2998    0.0000 O   0  0  0  0  0  0  0  0  0  0  0  0
   -6.0454   -9.2628    0.0000 C   0  0  0  0  0  0  0  0  0  0  0  0
   -7.5126   -9.5747    0.0000 C   0  0  0  0  0  0  0  0  0  0  0  0
   -5.0417  -10.3776    0.0000 C   0  0  0  0  0  0  0  0  0  0  0  0
   -7.5000   -2.5981    0.0000 N   0  0  0  0  0  0  0  0  0  0  0  0
   -5.2500   -1.2990    0.0000 C   0  0  0  0  0  0  0  0  0  0  0  0
   -3.7500   -1.2990    0.0000 C   0  0  0  0  0  0  0  0  0  0  0  0
   -3.0000   -2.5981    0.0000 C   0  0  0  0  0  0  0  0  0  0  0  0
   -0.7500    1.2990    0.0000 C   0  0  0  0  0  0  0  0  0  0  0  0
    0.7500    1.2990    0.0000 C   0  0  0  0  0  0  0  0  0  0  0  0
  1  2  1  0
  2  3  1  0
  3  4  1  0
  4  5  1  0
  6  3  1  1
  6  7  1  0
  7  8  1  0
  8  9  1  0
  9 10  1  6
 10 11  2  0
 11 12  1  0
 12 13  1  0
 13 14  1  0
 14 15  1  0
 15 16  1  0
 12 17  2  0
 17 18  1  0
 18 19  1  0
 19 20  2  0
 20 21  1  0
 21 22  2  0
 22 23  1  0
 22 24  1  0
 24 25  1  0
 25 26  1  0
 26 27  2  0
 27 28  1  0
 28 29  1  0
 28 30  1  0
 30 31  2  0
 31 32  1  0
 32 33  2  0
 32 34  2  0
 32 35  1  0
 35 36  1  0
 35 37  1  0
 24 38  2  0
 17 39  1  0
 39 40  2  0
 40 41  1  0
  9 42  1  0
 42 43  1  0
 43  6  1  0
 40 10  1  0
 16 14  1  0
 38 19  1  0
 31 26  1  0
M  END
>  <Compound_ID>  (246) 
CHEMBL3785934

>  <Molecule Name>  (246) 
nan

>  <Molecular Weight>  (246) 
630.26

>  <AlogP>  (246) 
6.75

>  <Smiles>  (246) 
CCN(CC)[C@H]1CC[C@H](c2cc(OC3CC3)c(Nc3ncc(Cl)c(Nc4cn(C)nc4S(=O)(=O)C(C)C)n3)cc2C)CC1

>  <Standard Type>  (246) 
IC50

>  <Standard Relation>  (246) 
'='

>  <Standard Units>  (246) 
nM

>  <Standard Value>  (246) 
12.0

>  <Assay ChEMBL ID>  (246) 
CHEMBL3791911

>  <Assay Description>  (246) 
Inhibition of recombinant human ALK L1196M mutant using tyrosine kinase substrate-biotin after 30 mins by HTRF assay

>  <BAO Format ID>  (246) 
BAO_0000357

>  <BAO Label>  (246) 
single protein format

>  <Assay Organism>  (246) 
Homo sapiens

>  <Target ChEMBL ID>  (246) 
CHEMBL4247

>  <Target Name>  (246) 
ALK tyrosine kinase receptor

>  <Target Organism>  (246) 
Homo sapiens

>  <Target Type>  (246) 
SINGLE PROTEIN

>  <Document ChEMBL ID>  (246) 
CHEMBL3785058

>  <Source Description>  (246) 
Scientific Literature

>  <Document Journal>  (246) 
Bioorg Med Chem Lett

>  <Document Year>  (246) 
2016.0

>  <Active>  (246) 
1.0

>  <bits>  (246) 
<rdkit.DataStructs.cDataStructs.ExplicitBitVect object at 0x000002422F1883C0>

>  <Group>  (246) 
G2

$$$$

     RDKit          2D

 29 32  0  0  0  0  0  0  0  0999 V2000
   -1.9975  -10.1845    0.0000 C   0  0  0  0  0  0  0  0  0  0  0  0
   -3.2110   -9.3029    0.0000 O   0  0  0  0  0  0  0  0  0  0  0  0
   -3.0542   -7.8111    0.0000 C   0  0  0  0  0  0  0  0  0  0  0  0
   -1.6839   -7.2010    0.0000 C   0  0  0  0  0  0  0  0  0  0  0  0
   -1.5271   -5.7092    0.0000 C   0  0  0  0  0  0  0  0  0  0  0  0
   -2.7406   -4.8275    0.0000 C   0  0  0  0  0  0  0  0  0  0  0  0
   -4.1110   -5.4376    0.0000 C   0  0  0  0  0  0  0  0  0  0  0  0
   -4.2677   -6.9294    0.0000 C   0  0  0  0  0  0  0  0  0  0  0  0
   -5.6381   -7.5395    0.0000 C   0  0  0  0  0  0  0  0  0  0  0  0
   -7.0084   -8.1496    0.0000 C   0  0  0  0  0  0  0  0  0  0  0  0
   -8.3787   -8.7597    0.0000 C   0  0  0  0  0  0  0  0  0  0  0  0
   -8.5355  -10.2515    0.0000 O   0  0  0  0  0  0  0  0  0  0  0  0
   -9.5922   -7.8780    0.0000 O   0  0  0  0  0  0  0  0  0  0  0  0
   -2.5838   -3.3357    0.0000 C   0  0  0  0  0  0  0  0  0  0  0  0
   -3.7974   -2.4540    0.0000 O   0  0  0  0  0  0  0  0  0  0  0  0
   -1.2135   -2.7256    0.0000 C   0  0  0  0  0  0  0  0  0  0  0  0
   -0.0000   -3.6073    0.0000 C   0  0  0  0  0  0  0  0  0  0  0  0
    1.2135   -2.7256    0.0000 N   0  0  0  0  0  0  0  0  0  0  0  0
    0.7500   -1.2990    0.0000 C   0  0  0  0  0  0  0  0  0  0  0  0
    1.5000    0.0000    0.0000 C   0  0  0  0  0  0  0  0  0  0  0  0
    0.7500    1.2990    0.0000 C   0  0  0  0  0  0  0  0  0  0  0  0
    1.5000    2.5981    0.0000 C   0  0  0  0  0  0  0  0  0  0  0  0
    2.2500    3.8971    0.0000 N   0  0  0  0  0  0  0  0  0  0  0  0
   -0.7500    1.2990    0.0000 C   0  0  0  0  0  0  0  0  0  0  0  0
   -1.5000    0.0000    0.0000 C   0  0  0  0  0  0  0  0  0  0  0  0
   -0.7500   -1.2990    0.0000 C   0  0  0  0  0  0  0  0  0  0  0  0
   -0.1568   -5.0991    0.0000 C   0  0  0  0  0  0  0  0  0  0  0  0
    0.2061   -6.5545    0.0000 C   0  0  0  0  0  0  0  0  0  0  0  0
    1.3396   -4.9944    0.0000 C   0  0  0  0  0  0  0  0  0  0  0  0
  1  2  1  0
  2  3  1  0
  3  4  2  0
  4  5  1  0
  5  6  2  0
  6  7  1  0
  7  8  2  0
  8  9  1  0
  9 10  3  0
 10 11  1  0
 11 12  2  0
 11 13  1  0
  6 14  1  0
 14 15  2  0
 14 16  1  0
 16 17  2  0
 17 18  1  0
 18 19  1  0
 19 20  2  0
 20 21  1  0
 21 22  1  0
 22 23  3  0
 21 24  2  0
 24 25  1  0
 25 26  2  0
 17 27  1  0
 27 28  1  0
 27 29  1  0
  8  3  1  0
 26 16  1  0
 27  5  1  0
 26 19  1  0
M  END
>  <Compound_ID>  (247) 
CHEMBL3912544

>  <Molecule Name>  (247) 
nan

>  <Molecular Weight>  (247) 
384.39

>  <AlogP>  (247) 
3.35

>  <Smiles>  (247) 
COc1cc2c(cc1C#CC(=O)O)C(=O)c1c([nH]c3cc(C#N)ccc13)C2(C)C

>  <Standard Type>  (247) 
IC50

>  <Standard Relation>  (247) 
'='

>  <Standard Units>  (247) 
nM

>  <Standard Value>  (247) 
6.668

>  <Assay ChEMBL ID>  (247) 
CHEMBL3887074

>  <Assay Description>  (247) 
Inhibition Assay: ALK-inhibiting activity was measured by following an activity of inhibiting phosphorylation by biotinylated peptide (EGPWLEEEEEAYGWMDF). For the detection of phosphorylation of the biotinylated peptide, time-resolved fluorescence measurement was performed using an anti-phosphorylated tyrosine antibody labeled with europium cryptate and streptavidin conjugated to XL665, i.e., an allophycocyanin derivative.

>  <BAO Format ID>  (247) 
BAO_0000357

>  <BAO Label>  (247) 
single protein format

>  <Assay Organism>  (247) 
Homo sapiens

>  <Target ChEMBL ID>  (247) 
CHEMBL4247

>  <Target Name>  (247) 
ALK tyrosine kinase receptor

>  <Target Organism>  (247) 
Homo sapiens

>  <Target Type>  (247) 
SINGLE PROTEIN

>  <Document ChEMBL ID>  (247) 
CHEMBL3886150

>  <Source Description>  (247) 
BindingDB Database

>  <Document Journal>  (247) 
nan

>  <Document Year>  (247) 
2015.0

>  <Active>  (247) 
1.0

>  <bits>  (247) 
<rdkit.DataStructs.cDataStructs.ExplicitBitVect object at 0x000002422F189070>

>  <Group>  (247) 
G2

$$$$

     RDKit          2D

 39 43  0  0  0  0  0  0  0  0999 V2000
    3.0000    0.0000    0.0000 C   0  0  0  0  0  0  0  0  0  0  0  0
    1.5000    0.0000    0.0000 C   0  0  0  0  0  0  0  0  0  0  0  0
    0.7500   -1.2990    0.0000 C   0  0  0  0  0  0  0  0  0  0  0  0
   -0.7500   -1.2990    0.0000 C   0  0  0  0  0  0  0  0  0  0  0  0
   -1.5000   -2.5981    0.0000 N   0  0  0  0  0  0  0  0  0  0  0  0
   -3.0000   -2.5981    0.0000 C   0  0  0  0  0  0  0  0  0  0  0  0
   -3.7500   -1.2990    0.0000 N   0  0  0  0  0  0  0  0  0  0  0  0
   -5.2500   -1.2990    0.0000 C   0  0  0  0  0  0  0  0  0  0  0  0
   -6.0000   -2.5981    0.0000 C   0  0  0  0  0  0  0  0  0  0  0  0
   -7.5000   -2.5981    0.0000 F   0  0  0  0  0  0  0  0  0  0  0  0
   -5.2500   -3.8971    0.0000 C   0  0  0  0  0  0  0  0  0  0  0  0
   -6.0000   -5.1962    0.0000 N   0  0  0  0  0  0  0  0  0  0  0  0
   -5.2500   -6.4952    0.0000 C   0  0  0  0  0  0  0  0  0  0  0  0
   -3.7582   -6.6520    0.0000 C   0  0  0  0  0  0  0  0  0  0  0  0
   -3.4463   -8.1192    0.0000 N   0  0  0  0  0  0  0  0  0  0  0  0
   -2.0760   -8.7293    0.0000 C   0  0  0  0  0  0  0  0  0  0  0  0
   -4.7454   -8.8692    0.0000 N   0  0  0  0  0  0  0  0  0  0  0  0
   -5.8601   -7.8655    0.0000 C   0  0  0  0  0  0  0  0  0  0  0  0
   -7.3273   -8.1774    0.0000 S   0  0  0  0  0  0  0  0  0  0  0  0
   -7.6392   -6.7102    0.0000 O   0  0  0  0  0  0  0  0  0  0  0  0
   -7.0155   -9.6446    0.0000 O   0  0  0  0  0  0  0  0  0  0  0  0
   -8.7945   -8.4892    0.0000 C   0  0  0  0  0  0  0  0  0  0  0  0
   -9.7982   -7.3745    0.0000 C   0  0  0  0  0  0  0  0  0  0  0  0
   -9.2581   -9.9158    0.0000 C   0  0  0  0  0  0  0  0  0  0  0  0
   -3.7500   -3.8971    0.0000 N   0  0  0  0  0  0  0  0  0  0  0  0
   -1.5000    0.0000    0.0000 C   0  0  0  0  0  0  0  0  0  0  0  0
   -3.0000    0.0000    0.0000 O   0  0  0  0  0  0  0  0  0  0  0  0
   -3.7500    1.2990    0.0000 C   0  0  0  0  0  0  0  0  0  0  0  0
   -5.0490    2.0490    0.0000 C   0  0  0  0  0  0  0  0  0  0  0  0
   -3.7500    2.7990    0.0000 C   0  0  0  0  0  0  0  0  0  0  0  0
   -0.7500    1.2990    0.0000 C   0  0  0  0  0  0  0  0  0  0  0  0
    0.7500    1.2990    0.0000 C   0  0  0  0  0  0  0  0  0  0  0  0
    1.5000    2.5981    0.0000 C   0  0  0  0  0  0  0  0  0  0  0  0
    3.0000    2.5981    0.0000 C   0  0  0  0  0  0  0  0  0  0  0  0
    3.7500    3.8971    0.0000 C   0  0  0  0  0  0  0  0  0  0  0  0
    3.0000    5.1962    0.0000 N   0  0  0  0  0  0  0  0  0  0  0  0
    3.7500    6.4952    0.0000 C   0  0  0  0  0  0  0  0  0  0  0  0
    1.5000    5.1962    0.0000 C   0  0  0  0  0  0  0  0  0  0  0  0
    0.7500    3.8971    0.0000 C   0  0  0  0  0  0  0  0  0  0  0  0
  1  2  1  0
  2  3  2  0
  3  4  1  0
  4  5  1  0
  5  6  1  0
  6  7  2  0
  7  8  1  0
  8  9  2  0
  9 10  1  0
  9 11  1  0
 11 12  1  0
 12 13  1  0
 13 14  2  0
 14 15  1  0
 15 16  1  0
 15 17  1  0
 17 18  2  0
 18 19  1  0
 19 20  2  0
 19 21  2  0
 19 22  1  0
 22 23  1  0
 22 24  1  0
 11 25  2  0
  4 26  2  0
 26 27  1  0
 27 28  1  0
 28 29  1  0
 29 30  1  0
 26 31  1  0
 31 32  2  0
 32 33  1  0
 33 34  1  0
 34 35  1  0
 35 36  1  0
 36 37  1  0
 36 38  1  0
 38 39  1  0
 32  2  1  0
 39 33  1  0
 25  6  1  0
 30 28  1  0
 18 13  1  0
M  END
>  <Compound_ID>  (248) 
CHEMBL3787598

>  <Molecule Name>  (248) 
nan

>  <Molecular Weight>  (248) 
557.7

>  <AlogP>  (248) 
4.68

>  <Smiles>  (248) 
Cc1cc(Nc2ncc(F)c(Nc3cn(C)nc3S(=O)(=O)C(C)C)n2)c(OC2CC2)cc1C1CCN(C)CC1

>  <Standard Type>  (248) 
IC50

>  <Standard Relation>  (248) 
'='

>  <Standard Units>  (248) 
nM

>  <Standard Value>  (248) 
2.0

>  <Assay ChEMBL ID>  (248) 
CHEMBL3791910

>  <Assay Description>  (248) 
Inhibition of recombinant human wild type ALK using tyrosine kinase substrate-biotin after 30 mins by HTRF assay

>  <BAO Format ID>  (248) 
BAO_0000357

>  <BAO Label>  (248) 
single protein format

>  <Assay Organism>  (248) 
Homo sapiens

>  <Target ChEMBL ID>  (248) 
CHEMBL4247

>  <Target Name>  (248) 
ALK tyrosine kinase receptor

>  <Target Organism>  (248) 
Homo sapiens

>  <Target Type>  (248) 
SINGLE PROTEIN

>  <Document ChEMBL ID>  (248) 
CHEMBL3785058

>  <Source Description>  (248) 
Scientific Literature

>  <Document Journal>  (248) 
Bioorg Med Chem Lett

>  <Document Year>  (248) 
2016.0

>  <Active>  (248) 
1.0

>  <bits>  (248) 
<rdkit.DataStructs.cDataStructs.ExplicitBitVect object at 0x000002422F18B0D0>

>  <Group>  (248) 
G2

$$$$

     RDKit          2D

 44 47  0  0  0  0  0  0  0  0999 V2000
    3.0000    0.0000    0.0000 C   0  0  0  0  0  0  0  0  0  0  0  0
    1.5000    0.0000    0.0000 C   0  0  0  0  0  0  0  0  0  0  0  0
    0.7500   -1.2990    0.0000 C   0  0  0  0  0  0  0  0  0  0  0  0
   -0.7500   -1.2990    0.0000 C   0  0  0  0  0  0  0  0  0  0  0  0
   -1.5000   -2.5981    0.0000 N   0  0  0  0  0  0  0  0  0  0  0  0
   -3.0000   -2.5981    0.0000 C   0  0  0  0  0  0  0  0  0  0  0  0
   -3.7500   -1.2990    0.0000 N   0  0  0  0  0  0  0  0  0  0  0  0
   -5.2500   -1.2990    0.0000 C   0  0  0  0  0  0  0  0  0  0  0  0
   -6.0000   -2.5981    0.0000 C   0  0  0  0  0  0  0  0  0  0  0  0
   -7.5000   -2.5981    0.0000 Cl  0  0  0  0  0  0  0  0  0  0  0  0
   -5.2500   -3.8971    0.0000 C   0  0  0  0  0  0  0  0  0  0  0  0
   -6.0000   -5.1962    0.0000 N   0  0  0  0  0  0  0  0  0  0  0  0
   -5.2500   -6.4952    0.0000 C   0  0  0  0  0  0  0  0  0  0  0  0
   -3.7500   -6.4952    0.0000 C   0  0  0  0  0  0  0  0  0  0  0  0
   -3.0000   -7.7942    0.0000 C   0  0  0  0  0  0  0  0  0  0  0  0
   -3.7500   -9.0933    0.0000 C   0  0  0  0  0  0  0  0  0  0  0  0
   -5.2500   -9.0933    0.0000 C   0  0  0  0  0  0  0  0  0  0  0  0
   -6.0000   -7.7942    0.0000 C   0  0  0  0  0  0  0  0  0  0  0  0
   -7.5000   -7.7942    0.0000 S   0  0  0  0  0  0  0  0  0  0  0  0
   -7.5000   -9.2942    0.0000 O   0  0  0  0  0  0  0  0  0  0  0  0
   -7.5000   -6.2942    0.0000 O   0  0  0  0  0  0  0  0  0  0  0  0
   -9.0000   -7.7942    0.0000 C   0  0  0  0  0  0  0  0  0  0  0  0
   -9.7500   -9.0933    0.0000 F   0  0  0  0  0  0  0  0  0  0  0  0
   -9.7500   -6.4952    0.0000 F   0  0  0  0  0  0  0  0  0  0  0  0
   -3.7500   -3.8971    0.0000 N   0  0  0  0  0  0  0  0  0  0  0  0
   -1.5000    0.0000    0.0000 C   0  0  0  0  0  0  0  0  0  0  0  0
   -3.0000    0.0000    0.0000 O   0  0  0  0  0  0  0  0  0  0  0  0
   -3.7500    1.2990    0.0000 C   0  0  0  0  0  0  0  0  0  0  0  0
   -5.2500    1.2990    0.0000 C   0  0  0  0  0  0  0  0  0  0  0  0
   -3.0000    2.5981    0.0000 C   0  0  0  0  0  0  0  0  0  0  0  0
   -0.7500    1.2990    0.0000 C   0  0  0  0  0  0  0  0  0  0  0  0
    0.7500    1.2990    0.0000 C   0  0  0  0  0  0  0  0  0  0  0  0
    1.5000    2.5981    0.0000 C   0  0  0  0  0  0  0  0  0  0  0  0
    3.0000    2.5981    0.0000 C   0  0  0  0  0  0  0  0  0  0  0  0
    3.7500    3.8971    0.0000 C   0  0  0  0  0  0  0  0  0  0  0  0
    3.0000    5.1962    0.0000 N   0  0  0  0  0  0  0  0  0  0  0  0
    3.7500    6.4952    0.0000 C   0  0  0  0  0  0  0  0  0  0  0  0
    3.0000    7.7942    0.0000 O   0  0  0  0  0  0  0  0  0  0  0  0
    5.2500    6.4952    0.0000 C   0  0  0  0  0  0  0  0  0  0  0  0
    6.0000    7.7942    0.0000 N   0  0  0  0  0  0  0  0  0  0  0  0
    7.5000    7.7942    0.0000 C   0  0  0  0  0  0  0  0  0  0  0  0
    5.2500    9.0933    0.0000 C   0  0  0  0  0  0  0  0  0  0  0  0
    1.5000    5.1962    0.0000 C   0  0  0  0  0  0  0  0  0  0  0  0
    0.7500    3.8971    0.0000 C   0  0  0  0  0  0  0  0  0  0  0  0
  1  2  1  0
  2  3  2  0
  3  4  1  0
  4  5  1  0
  5  6  1  0
  6  7  2  0
  7  8  1  0
  8  9  2  0
  9 10  1  0
  9 11  1  0
 11 12  1  0
 12 13  1  0
 13 14  2  0
 14 15  1  0
 15 16  2  0
 16 17  1  0
 17 18  2  0
 18 19  1  0
 19 20  2  0
 19 21  2  0
 19 22  1  0
 22 23  1  0
 22 24  1  0
 11 25  2  0
  4 26  2  0
 26 27  1  0
 27 28  1  0
 28 29  1  0
 28 30  1  0
 26 31  1  0
 31 32  2  0
 32 33  1  0
 33 34  1  0
 34 35  1  0
 35 36  1  0
 36 37  1  0
 37 38  2  0
 37 39  1  0
 39 40  1  0
 40 41  1  0
 40 42  1  0
 36 43  1  0
 43 44  1  0
 32  2  1  0
 44 33  1  0
 25  6  1  0
 18 13  1  0
M  END
>  <Compound_ID>  (249) 
CHEMBL3651828

>  <Molecule Name>  (249) 
nan

>  <Molecular Weight>  (249) 
651.18

>  <AlogP>  (249) 
5.98

>  <Smiles>  (249) 
Cc1cc(Nc2ncc(Cl)c(Nc3ccccc3S(=O)(=O)C(F)F)n2)c(OC(C)C)cc1C1CCN(C(=O)CN(C)C)CC1

>  <Standard Type>  (249) 
IC50

>  <Standard Relation>  (249) 
'='

>  <Standard Units>  (249) 
nM

>  <Standard Value>  (249) 
77.0

>  <Assay ChEMBL ID>  (249) 
CHEMBL3705165

>  <Assay Description>  (249) 
Enzyme Assay: The inhibition of ALK tyrosine kinase activity may be demonstrated using known methods, for example using the recombinant kinase domain of the ALK in analogy to the VEGF-R kinase assay described in J. Wood et al. Cancer Res. 60, 2178-2189 (2000).

>  <BAO Format ID>  (249) 
BAO_0000357

>  <BAO Label>  (249) 
single protein format

>  <Assay Organism>  (249) 
Homo sapiens

>  <Target ChEMBL ID>  (249) 
CHEMBL4247

>  <Target Name>  (249) 
ALK tyrosine kinase receptor

>  <Target Organism>  (249) 
Homo sapiens

>  <Target Type>  (249) 
SINGLE PROTEIN

>  <Document ChEMBL ID>  (249) 
CHEMBL3638924

>  <Source Description>  (249) 
BindingDB Database

>  <Document Journal>  (249) 
nan

>  <Document Year>  (249) 
2013.0

>  <Active>  (249) 
1.0

>  <bits>  (249) 
<rdkit.DataStructs.cDataStructs.ExplicitBitVect object at 0x000002422F18BAE0>

>  <Group>  (249) 
G2

$$$$

     RDKit          2D

 37 42  0  0  0  0  0  0  0  0999 V2000
    1.3396   -4.9944    0.0000 C   0  0  0  0  0  0  0  0  0  0  0  0
   -0.1568   -5.0991    0.0000 C   0  0  0  0  0  0  0  0  0  0  0  0
    0.2061   -6.5545    0.0000 C   0  0  0  0  0  0  0  0  0  0  0  0
   -1.5271   -5.7092    0.0000 C   0  0  0  0  0  0  0  0  0  0  0  0
   -1.6839   -7.2010    0.0000 C   0  0  0  0  0  0  0  0  0  0  0  0
   -3.0542   -7.8111    0.0000 C   0  0  0  0  0  0  0  0  0  0  0  0
   -3.2110   -9.3029    0.0000 N   0  0  0  0  0  0  0  0  0  0  0  0
   -4.5813   -9.9130    0.0000 C   0  0  0  0  0  0  0  0  0  0  0  0
   -4.7381  -11.4047    0.0000 C   0  0  0  0  0  0  0  0  0  0  0  0
   -3.5246  -12.2864    0.0000 O   0  0  0  0  0  0  0  0  0  0  0  0
   -2.1543  -11.6763    0.0000 C   0  0  0  0  0  0  0  0  0  0  0  0
   -1.9975  -10.1845    0.0000 C   0  0  0  0  0  0  0  0  0  0  0  0
   -4.2677   -6.9294    0.0000 C   0  0  0  0  0  0  0  0  0  0  0  0
   -5.6381   -7.5395    0.0000 C   0  0  0  0  0  0  0  0  0  0  0  0
   -7.0084   -8.1496    0.0000 C   0  0  0  0  0  0  0  0  0  0  0  0
   -8.3787   -8.7597    0.0000 C   0  0  0  0  0  0  0  0  0  0  0  0
   -9.5922   -7.8780    0.0000 N   0  0  0  0  0  0  0  0  0  0  0  0
   -9.4354   -6.3863    0.0000 C   0  0  0  0  0  0  0  0  0  0  0  0
  -10.6490   -5.5046    0.0000 C   0  0  0  0  0  0  0  0  0  0  0  0
  -12.0193   -6.1147    0.0000 O   0  0  0  0  0  0  0  0  0  0  0  0
  -12.1761   -7.6065    0.0000 C   0  0  0  0  0  0  0  0  0  0  0  0
  -10.9625   -8.4881    0.0000 C   0  0  0  0  0  0  0  0  0  0  0  0
   -4.1110   -5.4376    0.0000 C   0  0  0  0  0  0  0  0  0  0  0  0
   -2.7406   -4.8275    0.0000 C   0  0  0  0  0  0  0  0  0  0  0  0
   -2.5838   -3.3357    0.0000 C   0  0  0  0  0  0  0  0  0  0  0  0
   -3.7974   -2.4540    0.0000 O   0  0  0  0  0  0  0  0  0  0  0  0
   -1.2135   -2.7256    0.0000 C   0  0  0  0  0  0  0  0  0  0  0  0
   -0.0000   -3.6073    0.0000 C   0  0  0  0  0  0  0  0  0  0  0  0
    1.2135   -2.7256    0.0000 N   0  0  0  0  0  0  0  0  0  0  0  0
    0.7500   -1.2990    0.0000 C   0  0  0  0  0  0  0  0  0  0  0  0
    1.5000    0.0000    0.0000 C   0  0  0  0  0  0  0  0  0  0  0  0
    0.7500    1.2990    0.0000 C   0  0  0  0  0  0  0  0  0  0  0  0
    1.5000    2.5981    0.0000 C   0  0  0  0  0  0  0  0  0  0  0  0
    2.2500    3.8971    0.0000 N   0  0  0  0  0  0  0  0  0  0  0  0
   -0.7500    1.2990    0.0000 C   0  0  0  0  0  0  0  0  0  0  0  0
   -1.5000    0.0000    0.0000 C   0  0  0  0  0  0  0  0  0  0  0  0
   -0.7500   -1.2990    0.0000 C   0  0  0  0  0  0  0  0  0  0  0  0
  1  2  1  0
  2  3  1  0
  2  4  1  0
  4  5  2  0
  5  6  1  0
  6  7  1  0
  7  8  1  0
  8  9  1  0
  9 10  1  0
 10 11  1  0
 11 12  1  0
  6 13  2  0
 13 14  1  0
 14 15  3  0
 15 16  1  0
 16 17  1  0
 17 18  1  0
 18 19  1  0
 19 20  1  0
 20 21  1  0
 21 22  1  0
 13 23  1  0
 23 24  2  0
 24 25  1  0
 25 26  2  0
 25 27  1  0
 27 28  2  0
 28 29  1  0
 29 30  1  0
 30 31  2  0
 31 32  1  0
 32 33  1  0
 33 34  3  0
 32 35  2  0
 35 36  1  0
 36 37  2  0
 28  2  1  0
 37 30  1  0
 24  4  1  0
 37 27  1  0
 12  7  1  0
 22 17  1  0
M  END
>  <Compound_ID>  (250) 
CHEMBL3904875

>  <Molecule Name>  (250) 
nan

>  <Molecular Weight>  (250) 
494.6

>  <AlogP>  (250) 
3.43

>  <Smiles>  (250) 
CC1(C)c2cc(N3CCOCC3)c(C#CCN3CCOCC3)cc2C(=O)c2c1[nH]c1cc(C#N)ccc21

>  <Standard Type>  (250) 
IC50

>  <Standard Relation>  (250) 
'='

>  <Standard Units>  (250) 
nM

>  <Standard Value>  (250) 
2.575

>  <Assay ChEMBL ID>  (250) 
CHEMBL3887074

>  <Assay Description>  (250) 
Inhibition Assay: ALK-inhibiting activity was measured by following an activity of inhibiting phosphorylation by biotinylated peptide (EGPWLEEEEEAYGWMDF). For the detection of phosphorylation of the biotinylated peptide, time-resolved fluorescence measurement was performed using an anti-phosphorylated tyrosine antibody labeled with europium cryptate and streptavidin conjugated to XL665, i.e., an allophycocyanin derivative.

>  <BAO Format ID>  (250) 
BAO_0000357

>  <BAO Label>  (250) 
single protein format

>  <Assay Organism>  (250) 
Homo sapiens

>  <Target ChEMBL ID>  (250) 
CHEMBL4247

>  <Target Name>  (250) 
ALK tyrosine kinase receptor

>  <Target Organism>  (250) 
Homo sapiens

>  <Target Type>  (250) 
SINGLE PROTEIN

>  <Document ChEMBL ID>  (250) 
CHEMBL3886150

>  <Source Description>  (250) 
BindingDB Database

>  <Document Journal>  (250) 
nan

>  <Document Year>  (250) 
2015.0

>  <Active>  (250) 
1.0

>  <bits>  (250) 
<rdkit.DataStructs.cDataStructs.ExplicitBitVect object at 0x000002422F18BD10>

>  <Group>  (250) 
G2

$$$$

     RDKit          2D

 42 46  0  0  0  0  0  0  0  0999 V2000
    3.0000    0.0000    0.0000 C   0  0  0  0  0  0  0  0  0  0  0  0
    1.5000    0.0000    0.0000 C   0  0  0  0  0  0  0  0  0  0  0  0
    0.7500   -1.2990    0.0000 C   0  0  0  0  0  0  0  0  0  0  0  0
   -0.7500   -1.2990    0.0000 C   0  0  0  0  0  0  0  0  0  0  0  0
   -1.5000   -2.5981    0.0000 N   0  0  0  0  0  0  0  0  0  0  0  0
   -3.0000   -2.5981    0.0000 C   0  0  0  0  0  0  0  0  0  0  0  0
   -3.7500   -1.2990    0.0000 N   0  0  0  0  0  0  0  0  0  0  0  0
   -5.2500   -1.2990    0.0000 C   0  0  0  0  0  0  0  0  0  0  0  0
   -6.0000   -2.5981    0.0000 C   0  0  0  0  0  0  0  0  0  0  0  0
   -7.5000   -2.5981    0.0000 Cl  0  0  0  0  0  0  0  0  0  0  0  0
   -5.2500   -3.8971    0.0000 C   0  0  0  0  0  0  0  0  0  0  0  0
   -6.0000   -5.1962    0.0000 N   0  0  0  0  0  0  0  0  0  0  0  0
   -5.2500   -6.4952    0.0000 C   0  0  0  0  0  0  0  0  0  0  0  0
   -3.7582   -6.6520    0.0000 C   0  0  0  0  0  0  0  0  0  0  0  0
   -3.4463   -8.1192    0.0000 N   0  0  0  0  0  0  0  0  0  0  0  0
   -2.0760   -8.7293    0.0000 C   0  0  0  0  0  0  0  0  0  0  0  0
   -4.7454   -8.8692    0.0000 N   0  0  0  0  0  0  0  0  0  0  0  0
   -5.8601   -7.8655    0.0000 C   0  0  0  0  0  0  0  0  0  0  0  0
   -7.3273   -8.1774    0.0000 S   0  0  0  0  0  0  0  0  0  0  0  0
   -7.6392   -6.7102    0.0000 O   0  0  0  0  0  0  0  0  0  0  0  0
   -7.0155   -9.6446    0.0000 O   0  0  0  0  0  0  0  0  0  0  0  0
   -8.7945   -8.4892    0.0000 C   0  0  0  0  0  0  0  0  0  0  0  0
   -9.7982   -7.3745    0.0000 C   0  0  0  0  0  0  0  0  0  0  0  0
   -9.2581   -9.9158    0.0000 C   0  0  0  0  0  0  0  0  0  0  0  0
   -3.7500   -3.8971    0.0000 N   0  0  0  0  0  0  0  0  0  0  0  0
   -1.5000    0.0000    0.0000 C   0  0  0  0  0  0  0  0  0  0  0  0
   -3.0000    0.0000    0.0000 O   0  0  0  0  0  0  0  0  0  0  0  0
   -3.7500    1.2990    0.0000 C   0  0  0  0  0  0  0  0  0  0  0  0
   -5.0490    2.0490    0.0000 C   0  0  0  0  0  0  0  0  0  0  0  0
   -3.7500    2.7990    0.0000 C   0  0  0  0  0  0  0  0  0  0  0  0
   -0.7500    1.2990    0.0000 C   0  0  0  0  0  0  0  0  0  0  0  0
    0.7500    1.2990    0.0000 C   0  0  0  0  0  0  0  0  0  0  0  0
    1.5000    2.5981    0.0000 C   0  0  0  0  0  0  0  0  0  0  0  0
    3.0000    2.5981    0.0000 C   0  0  0  0  0  0  0  0  0  0  0  0
    3.7500    3.8971    0.0000 C   0  0  0  0  0  0  0  0  0  0  0  0
    3.0000    5.1962    0.0000 C   0  0  0  0  0  0  0  0  0  0  0  0
    3.7500    6.4952    0.0000 N   0  0  0  0  0  0  0  0  0  0  0  0
    5.2500    6.4952    0.0000 C   0  0  0  0  0  0  0  0  0  0  0  0
    6.0000    7.7942    0.0000 C   0  0  0  0  0  0  0  0  0  0  0  0
    6.0000    5.1962    0.0000 C   0  0  0  0  0  0  0  0  0  0  0  0
    1.5000    5.1962    0.0000 C   0  0  0  0  0  0  0  0  0  0  0  0
    0.7500    3.8971    0.0000 C   0  0  0  0  0  0  0  0  0  0  0  0
  1  2  1  0
  2  3  2  0
  3  4  1  0
  4  5  1  0
  5  6  1  0
  6  7  2  0
  7  8  1  0
  8  9  2  0
  9 10  1  0
  9 11  1  0
 11 12  1  0
 12 13  1  0
 13 14  2  0
 14 15  1  0
 15 16  1  0
 15 17  1  0
 17 18  2  0
 18 19  1  0
 19 20  2  0
 19 21  2  0
 19 22  1  0
 22 23  1  0
 22 24  1  0
 11 25  2  0
  4 26  2  0
 26 27  1  0
 27 28  1  0
 28 29  1  0
 29 30  1  0
 26 31  1  0
 31 32  2  0
 33 32  1  6
 33 34  1  0
 34 35  1  0
 35 36  1  0
 36 37  1  6
 37 38  1  0
 38 39  1  0
 38 40  1  0
 36 41  1  0
 41 42  1  0
 32  2  1  0
 42 33  1  0
 25  6  1  0
 30 28  1  0
 18 13  1  0
M  END
>  <Compound_ID>  (251) 
CHEMBL3785825

>  <Molecule Name>  (251) 
nan

>  <Molecular Weight>  (251) 
616.23

>  <AlogP>  (251) 
6.41

>  <Smiles>  (251) 
Cc1cc(Nc2ncc(Cl)c(Nc3cn(C)nc3S(=O)(=O)C(C)C)n2)c(OC2CC2)cc1[C@H]1CC[C@@H](NC(C)C)CC1

>  <Standard Type>  (251) 
IC50

>  <Standard Relation>  (251) 
'='

>  <Standard Units>  (251) 
nM

>  <Standard Value>  (251) 
5.0

>  <Assay ChEMBL ID>  (251) 
CHEMBL3791910

>  <Assay Description>  (251) 
Inhibition of recombinant human wild type ALK using tyrosine kinase substrate-biotin after 30 mins by HTRF assay

>  <BAO Format ID>  (251) 
BAO_0000357

>  <BAO Label>  (251) 
single protein format

>  <Assay Organism>  (251) 
Homo sapiens

>  <Target ChEMBL ID>  (251) 
CHEMBL4247

>  <Target Name>  (251) 
ALK tyrosine kinase receptor

>  <Target Organism>  (251) 
Homo sapiens

>  <Target Type>  (251) 
SINGLE PROTEIN

>  <Document ChEMBL ID>  (251) 
CHEMBL3785058

>  <Source Description>  (251) 
Scientific Literature

>  <Document Journal>  (251) 
Bioorg Med Chem Lett

>  <Document Year>  (251) 
2016.0

>  <Active>  (251) 
1.0

>  <bits>  (251) 
<rdkit.DataStructs.cDataStructs.ExplicitBitVect object at 0x000002422F188F20>

>  <Group>  (251) 
G2

$$$$

     RDKit          2D

 36 42  0  0  0  0  0  0  0  0999 V2000
    2.6491   -3.5623    0.0000 C   0  0  0  0  0  0  0  0  0  0  0  0
    1.5000   -2.5981    0.0000 C   0  0  0  0  0  0  0  0  0  0  0  0
    2.6491   -1.6339    0.0000 C   0  0  0  0  0  0  0  0  0  0  0  0
    0.7500   -1.2990    0.0000 C   0  0  0  0  0  0  0  0  0  0  0  0
    1.5000    0.0000    0.0000 C   0  0  0  0  0  0  0  0  0  0  0  0
    0.7500    1.2990    0.0000 C   0  0  0  0  0  0  0  0  0  0  0  0
    1.5000    2.5981    0.0000 O   0  0  0  0  0  0  0  0  0  0  0  0
    3.0000    2.5981    0.0000 C   0  0  0  0  0  0  0  0  0  0  0  0
    3.8817    1.3846    0.0000 C   0  0  0  0  0  0  0  0  0  0  0  0
    5.3083    1.8481    0.0000 C   0  0  0  0  0  0  0  0  0  0  0  0
    5.3083    3.3481    0.0000 O   0  0  0  0  0  0  0  0  0  0  0  0
    3.8817    3.8116    0.0000 C   0  0  0  0  0  0  0  0  0  0  0  0
    2.4145    4.1235    0.0000 C   0  0  0  0  0  0  0  0  0  0  0  0
    1.9509    5.5501    0.0000 C   0  0  0  0  0  0  0  0  0  0  0  0
    2.9546    6.6648    0.0000 N   0  0  0  0  0  0  0  0  0  0  0  0
    2.4911    8.0914    0.0000 C   0  0  0  0  0  0  0  0  0  0  0  0
    3.1721    9.4279    0.0000 C   0  0  0  0  0  0  0  0  0  0  0  0
    1.8356   10.1089    0.0000 O   0  0  0  0  0  0  0  0  0  0  0  0
    1.1546    8.7723    0.0000 C   0  0  0  0  0  0  0  0  0  0  0  0
    4.4218    6.3529    0.0000 C   0  0  0  0  0  0  0  0  0  0  0  0
    4.8854    4.9263    0.0000 C   0  0  0  0  0  0  0  0  0  0  0  0
   -0.7500    1.2990    0.0000 C   0  0  0  0  0  0  0  0  0  0  0  0
   -1.5000    0.0000    0.0000 C   0  0  0  0  0  0  0  0  0  0  0  0
   -0.7500   -1.2990    0.0000 C   0  0  0  0  0  0  0  0  0  0  0  0
   -1.5000   -2.5981    0.0000 C   0  0  0  0  0  0  0  0  0  0  0  0
   -3.0000   -2.5981    0.0000 O   0  0  0  0  0  0  0  0  0  0  0  0
   -0.7500   -3.8971    0.0000 C   0  0  0  0  0  0  0  0  0  0  0  0
    0.7500   -3.8971    0.0000 C   0  0  0  0  0  0  0  0  0  0  0  0
    1.2135   -5.3237    0.0000 N   0  0  0  0  0  0  0  0  0  0  0  0
    0.0000   -6.2054    0.0000 C   0  0  0  0  0  0  0  0  0  0  0  0
   -0.1568   -7.6972    0.0000 C   0  0  0  0  0  0  0  0  0  0  0  0
   -1.5271   -8.3073    0.0000 C   0  0  0  0  0  0  0  0  0  0  0  0
   -1.6839   -9.7990    0.0000 Br  0  0  0  0  0  0  0  0  0  0  0  0
   -2.7406   -7.4256    0.0000 C   0  0  0  0  0  0  0  0  0  0  0  0
   -2.5838   -5.9338    0.0000 C   0  0  0  0  0  0  0  0  0  0  0  0
   -1.2135   -5.3237    0.0000 C   0  0  0  0  0  0  0  0  0  0  0  0
  1  2  1  0
  2  3  1  0
  2  4  1  0
  4  5  2  0
  5  6  1  0
  6  7  1  0
  7  8  1  0
  8  9  1  0
  9 10  1  0
 10 11  1  0
 11 12  1  0
 12 13  1  0
 13 14  1  0
 14 15  1  0
 15 16  1  0
 16 17  1  0
 17 18  1  0
 18 19  1  0
 15 20  1  0
 20 21  1  0
  6 22  2  0
 22 23  1  0
 23 24  2  0
 24 25  1  0
 25 26  2  0
 25 27  1  0
 27 28  2  0
 28 29  1  0
 29 30  1  0
 30 31  2  0
 31 32  1  0
 32 33  1  0
 32 34  2  0
 34 35  1  0
 35 36  2  0
 28  2  1  0
 36 30  1  0
 24  4  1  0
 36 27  1  0
 12  8  1  0
 19 16  1  0
 21 12  1  0
M  END
>  <Compound_ID>  (252) 
CHEMBL3958668

>  <Molecule Name>  (252) 
nan

>  <Molecular Weight>  (252) 
551.48

>  <AlogP>  (252) 
5.20

>  <Smiles>  (252) 
CC1(C)c2cc(OC3CCOC34CCN(C3COC3)CC4)ccc2C(=O)c2c1[nH]c1cc(Br)ccc21

>  <Standard Type>  (252) 
IC50

>  <Standard Relation>  (252) 
'='

>  <Standard Units>  (252) 
nM

>  <Standard Value>  (252) 
79.41

>  <Assay ChEMBL ID>  (252) 
CHEMBL3887074

>  <Assay Description>  (252) 
Inhibition Assay: ALK-inhibiting activity was measured by following an activity of inhibiting phosphorylation by biotinylated peptide (EGPWLEEEEEAYGWMDF). For the detection of phosphorylation of the biotinylated peptide, time-resolved fluorescence measurement was performed using an anti-phosphorylated tyrosine antibody labeled with europium cryptate and streptavidin conjugated to XL665, i.e., an allophycocyanin derivative.

>  <BAO Format ID>  (252) 
BAO_0000357

>  <BAO Label>  (252) 
single protein format

>  <Assay Organism>  (252) 
Homo sapiens

>  <Target ChEMBL ID>  (252) 
CHEMBL4247

>  <Target Name>  (252) 
ALK tyrosine kinase receptor

>  <Target Organism>  (252) 
Homo sapiens

>  <Target Type>  (252) 
SINGLE PROTEIN

>  <Document ChEMBL ID>  (252) 
CHEMBL3886150

>  <Source Description>  (252) 
BindingDB Database

>  <Document Journal>  (252) 
nan

>  <Document Year>  (252) 
2015.0

>  <Active>  (252) 
1.0

>  <bits>  (252) 
<rdkit.DataStructs.cDataStructs.ExplicitBitVect object at 0x000002422F189BD0>

>  <Group>  (252) 
G2

$$$$

     RDKit          2D

 35 39  0  0  0  0  0  0  0  0999 V2000
   -6.8516   -6.6578    0.0000 C   0  0  0  0  0  0  0  0  0  0  0  0
   -5.6381   -7.5395    0.0000 C   0  0  0  0  0  0  0  0  0  0  0  0
   -4.2677   -6.9294    0.0000 C   0  0  0  0  0  0  0  0  0  0  0  0
   -4.1110   -5.4376    0.0000 C   0  0  0  0  0  0  0  0  0  0  0  0
   -2.7406   -4.8275    0.0000 C   0  0  0  0  0  0  0  0  0  0  0  0
   -1.5271   -5.7092    0.0000 C   0  0  0  0  0  0  0  0  0  0  0  0
   -1.6839   -7.2010    0.0000 C   0  0  0  0  0  0  0  0  0  0  0  0
   -3.0542   -7.8111    0.0000 C   0  0  0  0  0  0  0  0  0  0  0  0
   -3.2110   -9.3029    0.0000 N   0  0  0  0  0  0  0  0  0  0  0  0
   -4.5813   -9.9130    0.0000 C   0  0  0  0  0  0  0  0  0  0  0  0
   -4.7381  -11.4047    0.0000 C   0  0  0  0  0  0  0  0  0  0  0  0
   -3.5246  -12.2864    0.0000 C   0  0  0  0  0  0  0  0  0  0  0  0
   -3.6814  -13.7782    0.0000 N   0  0  0  0  0  0  0  0  0  0  0  0
   -5.0517  -14.3883    0.0000 C   0  0  0  0  0  0  0  0  0  0  0  0
   -5.2085  -15.8801    0.0000 C   0  0  0  0  0  0  0  0  0  0  0  0
   -6.5788  -16.4902    0.0000 C   0  0  0  0  0  0  0  0  0  0  0  0
   -6.7356  -17.9820    0.0000 O   0  0  0  0  0  0  0  0  0  0  0  0
   -2.1543  -11.6763    0.0000 C   0  0  0  0  0  0  0  0  0  0  0  0
   -1.9975  -10.1845    0.0000 C   0  0  0  0  0  0  0  0  0  0  0  0
   -0.1568   -5.0991    0.0000 C   0  0  0  0  0  0  0  0  0  0  0  0
    1.3396   -4.9944    0.0000 C   0  0  0  0  0  0  0  0  0  0  0  0
    0.2061   -6.5545    0.0000 C   0  0  0  0  0  0  0  0  0  0  0  0
   -0.0000   -3.6073    0.0000 C   0  0  0  0  0  0  0  0  0  0  0  0
    1.2135   -2.7256    0.0000 N   0  0  0  0  0  0  0  0  0  0  0  0
    0.7500   -1.2990    0.0000 C   0  0  0  0  0  0  0  0  0  0  0  0
    1.5000    0.0000    0.0000 C   0  0  0  0  0  0  0  0  0  0  0  0
    0.7500    1.2990    0.0000 C   0  0  0  0  0  0  0  0  0  0  0  0
    1.5000    2.5981    0.0000 C   0  0  0  0  0  0  0  0  0  0  0  0
    2.2500    3.8971    0.0000 N   0  0  0  0  0  0  0  0  0  0  0  0
   -0.7500    1.2990    0.0000 C   0  0  0  0  0  0  0  0  0  0  0  0
   -1.5000    0.0000    0.0000 C   0  0  0  0  0  0  0  0  0  0  0  0
   -0.7500   -1.2990    0.0000 C   0  0  0  0  0  0  0  0  0  0  0  0
   -1.2135   -2.7256    0.0000 C   0  0  0  0  0  0  0  0  0  0  0  0
   -2.5838   -3.3357    0.0000 C   0  0  0  0  0  0  0  0  0  0  0  0
   -3.7974   -2.4540    0.0000 O   0  0  0  0  0  0  0  0  0  0  0  0
  1  2  1  0
  2  3  1  0
  3  4  2  0
  4  5  1  0
  5  6  2  0
  6  7  1  0
  7  8  2  0
  8  9  1  0
  9 10  1  0
 10 11  1  0
 11 12  1  0
 12 13  1  0
 13 14  1  0
 14 15  1  0
 15 16  1  0
 16 17  1  0
 12 18  1  0
 18 19  1  0
  6 20  1  0
 20 21  1  0
 20 22  1  0
 20 23  1  0
 23 24  1  0
 24 25  1  0
 25 26  2  0
 26 27  1  0
 27 28  1  0
 28 29  3  0
 27 30  2  0
 30 31  1  0
 31 32  2  0
 32 33  1  0
 33 34  1  0
 34 35  2  0
  8  3  1  0
 19  9  1  0
 33 23  2  0
 34  5  1  0
 32 25  1  0
M  END
>  <Compound_ID>  (253) 
CHEMBL3939751

>  <Molecule Name>  (253) 
nan

>  <Molecular Weight>  (253) 
470.62

>  <AlogP>  (253) 
4.41

>  <Smiles>  (253) 
CCc1cc2c(cc1N1CCC(NCCCO)CC1)C(C)(C)c1[nH]c3cc(C#N)ccc3c1C2=O

>  <Standard Type>  (253) 
IC50

>  <Standard Relation>  (253) 
'='

>  <Standard Units>  (253) 
nM

>  <Standard Value>  (253) 
0.6

>  <Assay ChEMBL ID>  (253) 
CHEMBL3887074

>  <Assay Description>  (253) 
Inhibition Assay: ALK-inhibiting activity was measured by following an activity of inhibiting phosphorylation by biotinylated peptide (EGPWLEEEEEAYGWMDF). For the detection of phosphorylation of the biotinylated peptide, time-resolved fluorescence measurement was performed using an anti-phosphorylated tyrosine antibody labeled with europium cryptate and streptavidin conjugated to XL665, i.e., an allophycocyanin derivative.

>  <BAO Format ID>  (253) 
BAO_0000357

>  <BAO Label>  (253) 
single protein format

>  <Assay Organism>  (253) 
Homo sapiens

>  <Target ChEMBL ID>  (253) 
CHEMBL4247

>  <Target Name>  (253) 
ALK tyrosine kinase receptor

>  <Target Organism>  (253) 
Homo sapiens

>  <Target Type>  (253) 
SINGLE PROTEIN

>  <Document ChEMBL ID>  (253) 
CHEMBL3886150

>  <Source Description>  (253) 
BindingDB Database

>  <Document Journal>  (253) 
nan

>  <Document Year>  (253) 
2015.0

>  <Active>  (253) 
1.0

>  <bits>  (253) 
<rdkit.DataStructs.cDataStructs.ExplicitBitVect object at 0x000002422F189310>

>  <Group>  (253) 
G2

$$$$

     RDKit          2D

 29 32  0  0  0  0  0  0  0  0999 V2000
    2.6491   -3.5623    0.0000 C   0  0  0  0  0  0  0  0  0  0  0  0
    1.5000   -2.5981    0.0000 C   0  0  0  0  0  0  0  0  0  0  0  0
    2.6491   -1.6339    0.0000 C   0  0  0  0  0  0  0  0  0  0  0  0
    0.7500   -1.2990    0.0000 C   0  0  0  0  0  0  0  0  0  0  0  0
    1.5000    0.0000    0.0000 C   0  0  0  0  0  0  0  0  0  0  0  0
    0.7500    1.2990    0.0000 C   0  0  0  0  0  0  0  0  0  0  0  0
    1.5000    2.5981    0.0000 O   0  0  0  0  0  0  0  0  0  0  0  0
    3.0000    2.5981    0.0000 C   0  0  0  0  0  0  0  0  0  0  0  0
    3.7500    3.8971    0.0000 C   0  0  0  0  0  0  0  0  0  0  0  0
    5.2500    3.8971    0.0000 N   0  0  0  0  0  0  0  0  0  0  0  0
    6.0000    5.1962    0.0000 C   0  0  0  0  0  0  0  0  0  0  0  0
    7.5000    5.1962    0.0000 N   0  0  0  0  0  0  0  0  0  0  0  0
    5.2500    6.4952    0.0000 O   0  0  0  0  0  0  0  0  0  0  0  0
   -0.7500    1.2990    0.0000 C   0  0  0  0  0  0  0  0  0  0  0  0
   -1.5000    0.0000    0.0000 C   0  0  0  0  0  0  0  0  0  0  0  0
   -0.7500   -1.2990    0.0000 C   0  0  0  0  0  0  0  0  0  0  0  0
   -1.5000   -2.5981    0.0000 C   0  0  0  0  0  0  0  0  0  0  0  0
   -3.0000   -2.5981    0.0000 O   0  0  0  0  0  0  0  0  0  0  0  0
   -0.7500   -3.8971    0.0000 C   0  0  0  0  0  0  0  0  0  0  0  0
    0.7500   -3.8971    0.0000 C   0  0  0  0  0  0  0  0  0  0  0  0
    1.2135   -5.3237    0.0000 N   0  0  0  0  0  0  0  0  0  0  0  0
    0.0000   -6.2054    0.0000 C   0  0  0  0  0  0  0  0  0  0  0  0
   -0.1568   -7.6972    0.0000 C   0  0  0  0  0  0  0  0  0  0  0  0
   -1.5271   -8.3073    0.0000 C   0  0  0  0  0  0  0  0  0  0  0  0
   -1.6839   -9.7990    0.0000 C   0  0  0  0  0  0  0  0  0  0  0  0
   -1.8407  -11.2908    0.0000 N   0  0  0  0  0  0  0  0  0  0  0  0
   -2.7406   -7.4256    0.0000 C   0  0  0  0  0  0  0  0  0  0  0  0
   -2.5838   -5.9338    0.0000 C   0  0  0  0  0  0  0  0  0  0  0  0
   -1.2135   -5.3237    0.0000 C   0  0  0  0  0  0  0  0  0  0  0  0
  1  2  1  0
  2  3  1  0
  2  4  1  0
  4  5  2  0
  5  6  1  0
  6  7  1  0
  7  8  1  0
  8  9  1  0
  9 10  1  0
 10 11  1  0
 11 12  1  0
 11 13  2  0
  6 14  2  0
 14 15  1  0
 15 16  2  0
 16 17  1  0
 17 18  2  0
 17 19  1  0
 19 20  2  0
 20 21  1  0
 21 22  1  0
 22 23  2  0
 23 24  1  0
 24 25  1  0
 25 26  3  0
 24 27  2  0
 27 28  1  0
 28 29  2  0
 20  2  1  0
 29 22  1  0
 16  4  1  0
 29 19  1  0
M  END
>  <Compound_ID>  (254) 
CHEMBL1779195

>  <Molecule Name>  (254) 
nan

>  <Molecular Weight>  (254) 
388.43

>  <AlogP>  (254) 
2.96

>  <Smiles>  (254) 
CC1(C)c2cc(OCCNC(N)=O)ccc2C(=O)c2c1[nH]c1cc(C#N)ccc21

>  <Standard Type>  (254) 
IC50

>  <Standard Relation>  (254) 
'='

>  <Standard Units>  (254) 
nM

>  <Standard Value>  (254) 
26.18

>  <Assay ChEMBL ID>  (254) 
CHEMBL3887074

>  <Assay Description>  (254) 
Inhibition Assay: ALK-inhibiting activity was measured by following an activity of inhibiting phosphorylation by biotinylated peptide (EGPWLEEEEEAYGWMDF). For the detection of phosphorylation of the biotinylated peptide, time-resolved fluorescence measurement was performed using an anti-phosphorylated tyrosine antibody labeled with europium cryptate and streptavidin conjugated to XL665, i.e., an allophycocyanin derivative.

>  <BAO Format ID>  (254) 
BAO_0000357

>  <BAO Label>  (254) 
single protein format

>  <Assay Organism>  (254) 
Homo sapiens

>  <Target ChEMBL ID>  (254) 
CHEMBL4247

>  <Target Name>  (254) 
ALK tyrosine kinase receptor

>  <Target Organism>  (254) 
Homo sapiens

>  <Target Type>  (254) 
SINGLE PROTEIN

>  <Document ChEMBL ID>  (254) 
CHEMBL3886150

>  <Source Description>  (254) 
BindingDB Database

>  <Document Journal>  (254) 
nan

>  <Document Year>  (254) 
2015.0

>  <Active>  (254) 
1.0

>  <bits>  (254) 
<rdkit.DataStructs.cDataStructs.ExplicitBitVect object at 0x000002422F188820>

>  <Group>  (254) 
G2

$$$$

     RDKit          2D

 43 47  0  0  0  0  0  0  0  0999 V2000
    3.7500   -1.2990    0.0000 C   0  0  0  0  0  0  0  0  0  0  0  0
    3.0000    0.0000    0.0000 O   0  0  0  0  0  0  0  0  0  0  0  0
    1.5000    0.0000    0.0000 C   0  0  0  0  0  0  0  0  0  0  0  0
    0.7500   -1.2990    0.0000 C   0  0  0  0  0  0  0  0  0  0  0  0
   -0.7500   -1.2990    0.0000 C   0  0  0  0  0  0  0  0  0  0  0  0
   -1.5000    0.0000    0.0000 C   0  0  0  0  0  0  0  0  0  0  0  0
   -0.7500    1.2990    0.0000 C   0  0  0  0  0  0  0  0  0  0  0  0
    0.7500    1.2990    0.0000 C   0  0  0  0  0  0  0  0  0  0  0  0
    1.5000    2.5981    0.0000 N   0  0  0  0  0  0  0  0  0  0  0  0
    3.0000    2.5981    0.0000 C   0  0  0  0  0  0  0  0  0  0  0  0
    3.7500    1.2990    0.0000 N   0  0  0  0  0  0  0  0  0  0  0  0
    5.2500    1.2990    0.0000 C   0  0  0  0  0  0  0  0  0  0  0  0
    6.0000    2.5981    0.0000 C   0  0  0  0  0  0  0  0  0  0  0  0
    7.5000    2.5981    0.0000 Cl  0  0  0  0  0  0  0  0  0  0  0  0
    5.2500    3.8971    0.0000 C   0  0  0  0  0  0  0  0  0  0  0  0
    6.0000    5.1962    0.0000 N   0  0  0  0  0  0  0  0  0  0  0  0
    5.2500    6.4952    0.0000 C   0  0  0  0  0  0  0  0  0  0  0  0
    3.7500    6.4952    0.0000 C   0  0  0  0  0  0  0  0  0  0  0  0
    3.0000    7.7942    0.0000 C   0  0  0  0  0  0  0  0  0  0  0  0
    3.7500    9.0933    0.0000 C   0  0  0  0  0  0  0  0  0  0  0  0
    5.2500    9.0933    0.0000 C   0  0  0  0  0  0  0  0  0  0  0  0
    6.0000    7.7942    0.0000 C   0  0  0  0  0  0  0  0  0  0  0  0
    7.5000    7.7942    0.0000 S   0  0  0  0  0  0  0  0  0  0  0  0
    7.5000    6.2942    0.0000 O   0  0  0  0  0  0  0  0  0  0  0  0
    7.5000    9.2942    0.0000 O   0  0  0  0  0  0  0  0  0  0  0  0
    9.0000    7.7942    0.0000 C   0  0  0  0  0  0  0  0  0  0  0  0
    9.7500    6.4952    0.0000 C   0  0  0  0  0  0  0  0  0  0  0  0
    9.7500    9.0933    0.0000 C   0  0  0  0  0  0  0  0  0  0  0  0
    3.7500    3.8971    0.0000 N   0  0  0  0  0  0  0  0  0  0  0  0
   -2.9672   -0.3119    0.0000 C   0  0  0  0  0  0  0  0  0  0  0  0
   -4.0819    0.6918    0.0000 O   0  0  0  0  0  0  0  0  0  0  0  0
   -3.1240   -1.8037    0.0000 N   0  0  0  0  0  0  0  0  0  0  0  0
   -4.4231   -2.5537    0.0000 C   0  0  0  0  0  0  0  0  0  0  0  0
   -5.8719   -2.1654    0.0000 C   0  0  0  0  0  0  0  0  0  0  0  0
   -6.2602   -3.6143    0.0000 N   0  0  0  0  0  0  0  0  0  0  0  0
   -7.5592   -4.3643    0.0000 C   0  0  0  0  0  0  0  0  0  0  0  0
   -7.5592   -5.8643    0.0000 O   0  0  0  0  0  0  0  0  0  0  0  0
   -8.8582   -3.6143    0.0000 C   0  0  0  0  0  0  0  0  0  0  0  0
  -10.1573   -4.3643    0.0000 N   0  0  0  0  0  0  0  0  0  0  0  0
  -11.4563   -3.6143    0.0000 C   0  0  0  0  0  0  0  0  0  0  0  0
  -10.1573   -5.8643    0.0000 C   0  0  0  0  0  0  0  0  0  0  0  0
   -4.8113   -4.0025    0.0000 C   0  0  0  0  0  0  0  0  0  0  0  0
   -1.7537   -2.4138    0.0000 C   0  0  0  0  0  0  0  0  0  0  0  0
  1  2  1  0
  2  3  1  0
  3  4  2  0
  4  5  1  0
  5  6  2  0
  6  7  1  0
  7  8  2  0
  8  9  1  0
  9 10  1  0
 10 11  2  0
 11 12  1  0
 12 13  2  0
 13 14  1  0
 13 15  1  0
 15 16  1  0
 16 17  1  0
 17 18  2  0
 18 19  1  0
 19 20  2  0
 20 21  1  0
 21 22  2  0
 22 23  1  0
 23 24  2  0
 23 25  2  0
 23 26  1  0
 26 27  1  0
 26 28  1  0
 15 29  2  0
  6 30  1  0
 30 31  2  0
 30 32  1  0
 32 33  1  0
 33 34  1  0
 34 35  1  0
 35 36  1  0
 36 37  2  0
 36 38  1  0
 38 39  1  0
 39 40  1  0
 39 41  1  0
 35 42  1  0
 32 43  1  0
  8  3  1  0
 29 10  1  0
 42 33  1  0
 43  5  1  0
 22 17  1  0
M  END
>  <Compound_ID>  (255) 
CHEMBL3651841

>  <Molecule Name>  (255) 
nan

>  <Molecular Weight>  (255) 
628.16

>  <AlogP>  (255) 
3.54

>  <Smiles>  (255) 
COc1cc2c(cc1Nc1ncc(Cl)c(Nc3ccccc3S(=O)(=O)C(C)C)n1)C(=O)N(C1CN(C(=O)CN(C)C)C1)C2

>  <Standard Type>  (255) 
IC50

>  <Standard Relation>  (255) 
'='

>  <Standard Units>  (255) 
nM

>  <Standard Value>  (255) 
6.0

>  <Assay ChEMBL ID>  (255) 
CHEMBL3705165

>  <Assay Description>  (255) 
Enzyme Assay: The inhibition of ALK tyrosine kinase activity may be demonstrated using known methods, for example using the recombinant kinase domain of the ALK in analogy to the VEGF-R kinase assay described in J. Wood et al. Cancer Res. 60, 2178-2189 (2000).

>  <BAO Format ID>  (255) 
BAO_0000357

>  <BAO Label>  (255) 
single protein format

>  <Assay Organism>  (255) 
Homo sapiens

>  <Target ChEMBL ID>  (255) 
CHEMBL4247

>  <Target Name>  (255) 
ALK tyrosine kinase receptor

>  <Target Organism>  (255) 
Homo sapiens

>  <Target Type>  (255) 
SINGLE PROTEIN

>  <Document ChEMBL ID>  (255) 
CHEMBL3638924

>  <Source Description>  (255) 
BindingDB Database

>  <Document Journal>  (255) 
nan

>  <Document Year>  (255) 
2013.0

>  <Active>  (255) 
1.0

>  <bits>  (255) 
<rdkit.DataStructs.cDataStructs.ExplicitBitVect object at 0x000002422F188270>

>  <Group>  (255) 
G2

$$$$

     RDKit          2D

 30 34  0  0  0  0  0  0  0  0999 V2000
    2.6491   -3.5623    0.0000 C   0  0  0  0  0  0  0  0  0  0  0  0
    1.5000   -2.5981    0.0000 C   0  0  0  0  0  0  0  0  0  0  0  0
    2.6491   -1.6339    0.0000 C   0  0  0  0  0  0  0  0  0  0  0  0
    0.7500   -1.2990    0.0000 C   0  0  0  0  0  0  0  0  0  0  0  0
    1.5000    0.0000    0.0000 C   0  0  0  0  0  0  0  0  0  0  0  0
    0.7500    1.2990    0.0000 C   0  0  0  0  0  0  0  0  0  0  0  0
   -0.7500    1.2990    0.0000 C   0  0  0  0  0  0  0  0  0  0  0  0
   -1.5000    2.5981    0.0000 O   0  0  0  0  0  0  0  0  0  0  0  0
   -0.7500    3.8971    0.0000 C   0  0  0  0  0  0  0  0  0  0  0  0
   -1.5000    5.1962    0.0000 C   0  0  0  0  0  0  0  0  0  0  0  0
   -0.7500    6.4952    0.0000 C   0  0  0  0  0  0  0  0  0  0  0  0
   -1.5000    7.7942    0.0000 C   0  0  0  0  0  0  0  0  0  0  0  0
   -3.0000    7.7942    0.0000 C   0  0  0  0  0  0  0  0  0  0  0  0
   -3.7500    6.4952    0.0000 N   0  0  0  0  0  0  0  0  0  0  0  0
   -3.0000    5.1962    0.0000 C   0  0  0  0  0  0  0  0  0  0  0  0
   -1.5000    0.0000    0.0000 C   0  0  0  0  0  0  0  0  0  0  0  0
   -0.7500   -1.2990    0.0000 C   0  0  0  0  0  0  0  0  0  0  0  0
   -1.5000   -2.5981    0.0000 C   0  0  0  0  0  0  0  0  0  0  0  0
   -3.0000   -2.5981    0.0000 O   0  0  0  0  0  0  0  0  0  0  0  0
   -0.7500   -3.8971    0.0000 C   0  0  0  0  0  0  0  0  0  0  0  0
    0.7500   -3.8971    0.0000 C   0  0  0  0  0  0  0  0  0  0  0  0
    1.2135   -5.3237    0.0000 N   0  0  0  0  0  0  0  0  0  0  0  0
    0.0000   -6.2054    0.0000 C   0  0  0  0  0  0  0  0  0  0  0  0
   -0.1568   -7.6972    0.0000 C   0  0  0  0  0  0  0  0  0  0  0  0
   -1.5271   -8.3073    0.0000 C   0  0  0  0  0  0  0  0  0  0  0  0
   -1.6839   -9.7990    0.0000 C   0  0  0  0  0  0  0  0  0  0  0  0
   -1.8407  -11.2908    0.0000 N   0  0  0  0  0  0  0  0  0  0  0  0
   -2.7406   -7.4256    0.0000 C   0  0  0  0  0  0  0  0  0  0  0  0
   -2.5838   -5.9338    0.0000 C   0  0  0  0  0  0  0  0  0  0  0  0
   -1.2135   -5.3237    0.0000 C   0  0  0  0  0  0  0  0  0  0  0  0
  1  2  1  0
  2  3  1  0
  2  4  1  0
  4  5  2  0
  5  6  1  0
  6  7  2  0
  7  8  1  0
  8  9  1  0
  9 10  1  0
 10 11  2  0
 11 12  1  0
 12 13  2  0
 13 14  1  0
 14 15  2  0
  7 16  1  0
 16 17  2  0
 17 18  1  0
 18 19  2  0
 18 20  1  0
 20 21  2  0
 21 22  1  0
 22 23  1  0
 23 24  2  0
 24 25  1  0
 25 26  1  0
 26 27  3  0
 25 28  2  0
 28 29  1  0
 29 30  2  0
 21  2  1  0
 30 23  1  0
 17  4  1  0
 30 20  1  0
 15 10  1  0
M  END
>  <Compound_ID>  (256) 
CHEMBL3922786

>  <Molecule Name>  (256) 
nan

>  <Molecular Weight>  (256) 
393.45

>  <AlogP>  (256) 
4.88

>  <Smiles>  (256) 
CC1(C)c2ccc(OCc3cccnc3)cc2C(=O)c2c1[nH]c1cc(C#N)ccc21

>  <Standard Type>  (256) 
IC50

>  <Standard Relation>  (256) 
'='

>  <Standard Units>  (256) 
nM

>  <Standard Value>  (256) 
7.092

>  <Assay ChEMBL ID>  (256) 
CHEMBL3887074

>  <Assay Description>  (256) 
Inhibition Assay: ALK-inhibiting activity was measured by following an activity of inhibiting phosphorylation by biotinylated peptide (EGPWLEEEEEAYGWMDF). For the detection of phosphorylation of the biotinylated peptide, time-resolved fluorescence measurement was performed using an anti-phosphorylated tyrosine antibody labeled with europium cryptate and streptavidin conjugated to XL665, i.e., an allophycocyanin derivative.

>  <BAO Format ID>  (256) 
BAO_0000357

>  <BAO Label>  (256) 
single protein format

>  <Assay Organism>  (256) 
Homo sapiens

>  <Target ChEMBL ID>  (256) 
CHEMBL4247

>  <Target Name>  (256) 
ALK tyrosine kinase receptor

>  <Target Organism>  (256) 
Homo sapiens

>  <Target Type>  (256) 
SINGLE PROTEIN

>  <Document ChEMBL ID>  (256) 
CHEMBL3886150

>  <Source Description>  (256) 
BindingDB Database

>  <Document Journal>  (256) 
nan

>  <Document Year>  (256) 
2015.0

>  <Active>  (256) 
1.0

>  <bits>  (256) 
<rdkit.DataStructs.cDataStructs.ExplicitBitVect object at 0x000002422F18B220>

>  <Group>  (256) 
G2

$$$$

     RDKit          2D

 28 31  0  0  0  0  0  0  0  0999 V2000
    2.6491   -3.5623    0.0000 C   0  0  0  0  0  0  0  0  0  0  0  0
    1.5000   -2.5981    0.0000 C   0  0  0  0  0  0  0  0  0  0  0  0
    2.6491   -1.6339    0.0000 C   0  0  0  0  0  0  0  0  0  0  0  0
    0.7500   -1.2990    0.0000 C   0  0  0  0  0  0  0  0  0  0  0  0
    1.5000    0.0000    0.0000 C   0  0  0  0  0  0  0  0  0  0  0  0
    0.7500    1.2990    0.0000 C   0  0  0  0  0  0  0  0  0  0  0  0
   -0.7500    1.2990    0.0000 C   0  0  0  0  0  0  0  0  0  0  0  0
   -1.5000    2.5981    0.0000 O   0  0  0  0  0  0  0  0  0  0  0  0
   -0.7500    3.8971    0.0000 C   0  0  0  0  0  0  0  0  0  0  0  0
   -1.5000    5.1962    0.0000 C   0  0  0  0  0  0  0  0  0  0  0  0
   -3.0000    5.1962    0.0000 O   0  0  0  0  0  0  0  0  0  0  0  0
   -0.7500    6.4952    0.0000 C   0  0  0  0  0  0  0  0  0  0  0  0
   -1.5000    7.7942    0.0000 O   0  0  0  0  0  0  0  0  0  0  0  0
   -1.5000    0.0000    0.0000 C   0  0  0  0  0  0  0  0  0  0  0  0
   -0.7500   -1.2990    0.0000 C   0  0  0  0  0  0  0  0  0  0  0  0
   -1.5000   -2.5981    0.0000 C   0  0  0  0  0  0  0  0  0  0  0  0
   -3.0000   -2.5981    0.0000 O   0  0  0  0  0  0  0  0  0  0  0  0
   -0.7500   -3.8971    0.0000 C   0  0  0  0  0  0  0  0  0  0  0  0
    0.7500   -3.8971    0.0000 C   0  0  0  0  0  0  0  0  0  0  0  0
    1.2135   -5.3237    0.0000 N   0  0  0  0  0  0  0  0  0  0  0  0
    0.0000   -6.2054    0.0000 C   0  0  0  0  0  0  0  0  0  0  0  0
   -0.1568   -7.6972    0.0000 C   0  0  0  0  0  0  0  0  0  0  0  0
   -1.5271   -8.3073    0.0000 C   0  0  0  0  0  0  0  0  0  0  0  0
   -1.6839   -9.7990    0.0000 C   0  0  0  0  0  0  0  0  0  0  0  0
   -1.8407  -11.2908    0.0000 N   0  0  0  0  0  0  0  0  0  0  0  0
   -2.7406   -7.4256    0.0000 C   0  0  0  0  0  0  0  0  0  0  0  0
   -2.5838   -5.9338    0.0000 C   0  0  0  0  0  0  0  0  0  0  0  0
   -1.2135   -5.3237    0.0000 C   0  0  0  0  0  0  0  0  0  0  0  0
  1  2  1  0
  2  3  1  0
  2  4  1  0
  4  5  2  0
  5  6  1  0
  6  7  2  0
  7  8  1  0
  8  9  1  0
  9 10  1  0
 10 11  1  6
 10 12  1  0
 12 13  1  0
  7 14  1  0
 14 15  2  0
 15 16  1  0
 16 17  2  0
 16 18  1  0
 18 19  2  0
 19 20  1  0
 20 21  1  0
 21 22  2  0
 22 23  1  0
 23 24  1  0
 24 25  3  0
 23 26  2  0
 26 27  1  0
 27 28  2  0
 19  2  1  0
 28 21  1  0
 15  4  1  0
 28 18  1  0
M  END
>  <Compound_ID>  (257) 
CHEMBL4107738

>  <Molecule Name>  (257) 
nan

>  <Molecular Weight>  (257) 
376.41

>  <AlogP>  (257) 
2.64

>  <Smiles>  (257) 
CC1(C)c2ccc(OC[C@H](O)CO)cc2C(=O)c2c1[nH]c1cc(C#N)ccc21

>  <Standard Type>  (257) 
IC50

>  <Standard Relation>  (257) 
'='

>  <Standard Units>  (257) 
nM

>  <Standard Value>  (257) 
4.338

>  <Assay ChEMBL ID>  (257) 
CHEMBL3887074

>  <Assay Description>  (257) 
Inhibition Assay: ALK-inhibiting activity was measured by following an activity of inhibiting phosphorylation by biotinylated peptide (EGPWLEEEEEAYGWMDF). For the detection of phosphorylation of the biotinylated peptide, time-resolved fluorescence measurement was performed using an anti-phosphorylated tyrosine antibody labeled with europium cryptate and streptavidin conjugated to XL665, i.e., an allophycocyanin derivative.

>  <BAO Format ID>  (257) 
BAO_0000357

>  <BAO Label>  (257) 
single protein format

>  <Assay Organism>  (257) 
Homo sapiens

>  <Target ChEMBL ID>  (257) 
CHEMBL4247

>  <Target Name>  (257) 
ALK tyrosine kinase receptor

>  <Target Organism>  (257) 
Homo sapiens

>  <Target Type>  (257) 
SINGLE PROTEIN

>  <Document ChEMBL ID>  (257) 
CHEMBL3886150

>  <Source Description>  (257) 
BindingDB Database

>  <Document Journal>  (257) 
nan

>  <Document Year>  (257) 
2015.0

>  <Active>  (257) 
1.0

>  <bits>  (257) 
<rdkit.DataStructs.cDataStructs.ExplicitBitVect object at 0x000002422F18A810>

>  <Group>  (257) 
G2

$$$$

     RDKit          2D

 48 53  0  0  0  0  0  0  0  0999 V2000
    0.5271    8.0861    0.0000 C   0  0  0  0  0  0  0  0  0  0  0  0
   -0.8995    7.6226    0.0000 C   0  0  0  0  0  0  0  0  0  0  0  0
   -1.2114    6.1554    0.0000 C   0  0  0  0  0  0  0  0  0  0  0  0
   -2.6380    5.6918    0.0000 C   0  0  0  0  0  0  0  0  0  0  0  0
   -2.9499    4.2246    0.0000 N   0  0  0  0  0  0  0  0  0  0  0  0
   -1.8351    3.2209    0.0000 C   0  0  0  0  0  0  0  0  0  0  0  0
   -0.4086    3.6844    0.0000 N   0  0  0  0  0  0  0  0  0  0  0  0
    0.7062    2.6807    0.0000 C   0  0  0  0  0  0  0  0  0  0  0  0
    2.1328    3.1443    0.0000 N   0  0  0  0  0  0  0  0  0  0  0  0
    2.4446    4.6115    0.0000 C   0  0  0  0  0  0  0  0  0  0  0  0
    1.3299    5.6152    0.0000 C   0  0  0  0  0  0  0  0  0  0  0  0
    1.6418    7.0824    0.0000 C   0  0  0  0  0  0  0  0  0  0  0  0
    3.0684    7.5459    0.0000 C   0  0  0  0  0  0  0  0  0  0  0  0
    4.1831    6.5422    0.0000 C   0  0  0  0  0  0  0  0  0  0  0  0
    3.8712    5.0750    0.0000 C   0  0  0  0  0  0  0  0  0  0  0  0
    4.9859    4.0713    0.0000 S   0  0  0  0  0  0  0  0  0  0  0  0
    3.9822    2.9566    0.0000 O   0  0  0  0  0  0  0  0  0  0  0  0
    5.9896    5.1860    0.0000 O   0  0  0  0  0  0  0  0  0  0  0  0
    6.1006    3.0676    0.0000 C   0  0  0  0  0  0  0  0  0  0  0  0
    5.7888    1.6004    0.0000 C   0  0  0  0  0  0  0  0  0  0  0  0
    7.5272    3.5312    0.0000 C   0  0  0  0  0  0  0  0  0  0  0  0
    0.3943    1.2135    0.0000 C   0  0  0  0  0  0  0  0  0  0  0  0
    1.2760    0.0000    0.0000 C   0  0  0  0  0  0  0  0  0  0  0  0
    2.7760    0.0000    0.0000 C   0  0  0  0  0  0  0  0  0  0  0  0
    0.3943   -1.2135    0.0000 N   0  0  0  0  0  0  0  0  0  0  0  0
   -1.0323   -0.7500    0.0000 N   0  0  0  0  0  0  0  0  0  0  0  0
   -1.0323    0.7500    0.0000 C   0  0  0  0  0  0  0  0  0  0  0  0
   -2.1470    1.7537    0.0000 N   0  0  0  0  0  0  0  0  0  0  0  0
   -3.7527    6.6955    0.0000 C   0  0  0  0  0  0  0  0  0  0  0  0
   -5.1793    6.2320    0.0000 O   0  0  0  0  0  0  0  0  0  0  0  0
   -6.2940    7.2357    0.0000 C   0  0  0  0  0  0  0  0  0  0  0  0
   -7.7206    6.7722    0.0000 C   0  0  0  0  0  0  0  0  0  0  0  0
   -5.9821    8.7029    0.0000 C   0  0  0  0  0  0  0  0  0  0  0  0
   -3.4408    8.1628    0.0000 C   0  0  0  0  0  0  0  0  0  0  0  0
   -2.0143    8.6263    0.0000 C   0  0  0  0  0  0  0  0  0  0  0  0
   -1.7024   10.0935    0.0000 C   0  0  0  0  0  0  0  0  0  0  0  0
   -0.2758   10.5570    0.0000 C   0  0  0  0  0  0  0  0  0  0  0  0
    0.0361   12.0242    0.0000 C   0  0  0  0  0  0  0  0  0  0  0  0
   -1.0786   13.0279    0.0000 N   0  0  0  0  0  0  0  0  0  0  0  0
   -0.7668   14.4952    0.0000 C   0  0  0  0  0  0  0  0  0  0  0  0
   -1.7705   15.6099    0.0000 C   0  0  0  0  0  0  0  0  0  0  0  0
   -1.0205   16.9089    0.0000 C   0  0  0  0  0  0  0  0  0  0  0  0
    0.4467   16.5971    0.0000 S   0  0  0  0  0  0  0  0  0  0  0  0
    0.6035   18.0888    0.0000 O   0  0  0  0  0  0  0  0  0  0  0  0
    1.9467   16.5971    0.0000 O   0  0  0  0  0  0  0  0  0  0  0  0
    0.6035   15.1053    0.0000 C   0  0  0  0  0  0  0  0  0  0  0  0
   -2.5052   12.5644    0.0000 C   0  0  0  0  0  0  0  0  0  0  0  0
   -2.8171   11.0972    0.0000 C   0  0  0  0  0  0  0  0  0  0  0  0
  1  2  1  0
  2  3  2  0
  3  4  1  0
  4  5  1  0
  5  6  1  0
  6  7  1  0
  7  8  2  0
  8  9  1  0
  9 10  1  0
 10 11  2  0
 11 12  1  0
 12 13  2  0
 13 14  1  0
 14 15  2  0
 15 16  1  0
 16 17  2  0
 16 18  2  0
 16 19  1  0
 19 20  1  0
 19 21  1  0
  8 22  1  0
 22 23  2  0
 23 24  1  0
 23 25  1  0
 25 26  1  0
 26 27  2  0
 27 28  1  0
  4 29  2  0
 29 30  1  0
 30 31  1  0
 31 32  1  0
 31 33  1  0
 29 34  1  0
 34 35  2  0
 35 36  1  0
 36 37  1  0
 37 38  1  0
 38 39  1  0
 40 39  1  6
 40 41  1  0
 41 42  1  0
 42 43  1  0
 43 44  2  0
 43 45  2  0
 43 46  1  0
 39 47  1  0
 47 48  1  0
 35  2  1  0
 48 36  1  0
 28  6  2  0
 46 40  1  0
 15 10  1  0
 27 22  1  0
M  END
>  <Compound_ID>  (258) 
CHEMBL3651874

>  <Molecule Name>  (258) 
nan

>  <Molecular Weight>  (258) 
695.91

>  <AlogP>  (258) 
5.79

>  <Smiles>  (258) 
Cc1cc(Nc2nc(Nc3ccccc3S(=O)(=O)C(C)C)c3c(C)[nH]nc3n2)c(OC(C)C)cc1C1CCN([C@@H]2CCS(=O)(=O)C2)CC1

>  <Standard Type>  (258) 
IC50

>  <Standard Relation>  (258) 
'='

>  <Standard Units>  (258) 
nM

>  <Standard Value>  (258) 
18.0

>  <Assay ChEMBL ID>  (258) 
CHEMBL3705165

>  <Assay Description>  (258) 
Enzyme Assay: The inhibition of ALK tyrosine kinase activity may be demonstrated using known methods, for example using the recombinant kinase domain of the ALK in analogy to the VEGF-R kinase assay described in J. Wood et al. Cancer Res. 60, 2178-2189 (2000).

>  <BAO Format ID>  (258) 
BAO_0000357

>  <BAO Label>  (258) 
single protein format

>  <Assay Organism>  (258) 
Homo sapiens

>  <Target ChEMBL ID>  (258) 
CHEMBL4247

>  <Target Name>  (258) 
ALK tyrosine kinase receptor

>  <Target Organism>  (258) 
Homo sapiens

>  <Target Type>  (258) 
SINGLE PROTEIN

>  <Document ChEMBL ID>  (258) 
CHEMBL3638924

>  <Source Description>  (258) 
BindingDB Database

>  <Document Journal>  (258) 
nan

>  <Document Year>  (258) 
2013.0

>  <Active>  (258) 
1.0

>  <bits>  (258) 
<rdkit.DataStructs.cDataStructs.ExplicitBitVect object at 0x000002422F18BDF0>

>  <Group>  (258) 
G2

$$$$

     RDKit          2D

 29 32  0  0  0  0  0  0  0  0999 V2000
    1.0567   -8.5788    0.0000 C   0  0  0  0  0  0  0  0  0  0  0  0
   -0.1568   -7.6972    0.0000 C   0  0  0  0  0  0  0  0  0  0  0  0
   -1.5271   -8.3073    0.0000 C   0  0  0  0  0  0  0  0  0  0  0  0
   -1.6839   -9.7990    0.0000 C   0  0  0  0  0  0  0  0  0  0  0  0
   -1.8407  -11.2908    0.0000 N   0  0  0  0  0  0  0  0  0  0  0  0
   -2.7406   -7.4256    0.0000 C   0  0  0  0  0  0  0  0  0  0  0  0
   -2.5838   -5.9338    0.0000 C   0  0  0  0  0  0  0  0  0  0  0  0
   -1.2135   -5.3237    0.0000 C   0  0  0  0  0  0  0  0  0  0  0  0
   -0.7500   -3.8971    0.0000 C   0  0  0  0  0  0  0  0  0  0  0  0
    0.7500   -3.8971    0.0000 C   0  0  0  0  0  0  0  0  0  0  0  0
    1.2135   -5.3237    0.0000 N   0  0  0  0  0  0  0  0  0  0  0  0
   -0.0000   -6.2054    0.0000 C   0  0  0  0  0  0  0  0  0  0  0  0
    1.5000   -2.5981    0.0000 C   0  0  0  0  0  0  0  0  0  0  0  0
    2.6491   -1.6339    0.0000 C   0  0  0  0  0  0  0  0  0  0  0  0
    2.6491   -3.5623    0.0000 C   0  0  0  0  0  0  0  0  0  0  0  0
    0.7500   -1.2990    0.0000 C   0  0  0  0  0  0  0  0  0  0  0  0
    1.5000    0.0000    0.0000 C   0  0  0  0  0  0  0  0  0  0  0  0
    0.7500    1.2990    0.0000 C   0  0  0  0  0  0  0  0  0  0  0  0
    1.5000    2.5981    0.0000 O   0  0  0  0  0  0  0  0  0  0  0  0
    3.0000    2.5981    0.0000 C   0  0  0  0  0  0  0  0  0  0  0  0
    3.7500    3.8971    0.0000 C   0  0  0  0  0  0  0  0  0  0  0  0
    3.0000    5.1962    0.0000 O   0  0  0  0  0  0  0  0  0  0  0  0
    5.2500    3.8971    0.0000 C   0  0  0  0  0  0  0  0  0  0  0  0
    6.0000    5.1962    0.0000 O   0  0  0  0  0  0  0  0  0  0  0  0
   -0.7500    1.2990    0.0000 C   0  0  0  0  0  0  0  0  0  0  0  0
   -1.5000    0.0000    0.0000 C   0  0  0  0  0  0  0  0  0  0  0  0
   -0.7500   -1.2990    0.0000 C   0  0  0  0  0  0  0  0  0  0  0  0
   -1.5000   -2.5981    0.0000 C   0  0  0  0  0  0  0  0  0  0  0  0
   -3.0000   -2.5981    0.0000 O   0  0  0  0  0  0  0  0  0  0  0  0
  1  2  1  0
  2  3  2  0
  3  4  1  0
  4  5  3  0
  3  6  1  0
  6  7  2  0
  7  8  1  0
  8  9  1  0
  9 10  2  0
 10 11  1  0
 11 12  1  0
 10 13  1  0
 13 14  1  0
 13 15  1  0
 13 16  1  0
 16 17  2  0
 17 18  1  0
 18 19  1  0
 19 20  1  0
 20 21  1  0
 21 22  1  6
 21 23  1  0
 23 24  1  0
 18 25  2  0
 25 26  1  0
 26 27  2  0
 27 28  1  0
 28 29  2  0
 12  2  1  0
 27 16  1  0
 12  8  2  0
 28  9  1  0
M  END
>  <Compound_ID>  (259) 
CHEMBL4109094

>  <Molecule Name>  (259) 
nan

>  <Molecular Weight>  (259) 
390.44

>  <AlogP>  (259) 
2.95

>  <Smiles>  (259) 
Cc1c(C#N)ccc2c3c([nH]c12)C(C)(C)c1cc(OC[C@H](O)CO)ccc1C3=O

>  <Standard Type>  (259) 
IC50

>  <Standard Relation>  (259) 
'='

>  <Standard Units>  (259) 
nM

>  <Standard Value>  (259) 
6.04

>  <Assay ChEMBL ID>  (259) 
CHEMBL3887074

>  <Assay Description>  (259) 
Inhibition Assay: ALK-inhibiting activity was measured by following an activity of inhibiting phosphorylation by biotinylated peptide (EGPWLEEEEEAYGWMDF). For the detection of phosphorylation of the biotinylated peptide, time-resolved fluorescence measurement was performed using an anti-phosphorylated tyrosine antibody labeled with europium cryptate and streptavidin conjugated to XL665, i.e., an allophycocyanin derivative.

>  <BAO Format ID>  (259) 
BAO_0000357

>  <BAO Label>  (259) 
single protein format

>  <Assay Organism>  (259) 
Homo sapiens

>  <Target ChEMBL ID>  (259) 
CHEMBL4247

>  <Target Name>  (259) 
ALK tyrosine kinase receptor

>  <Target Organism>  (259) 
Homo sapiens

>  <Target Type>  (259) 
SINGLE PROTEIN

>  <Document ChEMBL ID>  (259) 
CHEMBL3886150

>  <Source Description>  (259) 
BindingDB Database

>  <Document Journal>  (259) 
nan

>  <Document Year>  (259) 
2015.0

>  <Active>  (259) 
1.0

>  <bits>  (259) 
<rdkit.DataStructs.cDataStructs.ExplicitBitVect object at 0x000002422F18BF40>

>  <Group>  (259) 
G2

$$$$

     RDKit          2D

 39 45  0  0  0  0  0  0  0  0999 V2000
    1.3396   -4.9944    0.0000 C   0  0  0  0  0  0  0  0  0  0  0  0
   -0.1568   -5.0991    0.0000 C   0  0  0  0  0  0  0  0  0  0  0  0
    0.2061   -6.5545    0.0000 C   0  0  0  0  0  0  0  0  0  0  0  0
   -1.5271   -5.7092    0.0000 C   0  0  0  0  0  0  0  0  0  0  0  0
   -1.6839   -7.2010    0.0000 C   0  0  0  0  0  0  0  0  0  0  0  0
   -3.0542   -7.8111    0.0000 C   0  0  0  0  0  0  0  0  0  0  0  0
   -3.2110   -9.3029    0.0000 N   0  0  0  0  0  0  0  0  0  0  0  0
   -4.5813   -9.9130    0.0000 C   0  0  0  0  0  0  0  0  0  0  0  0
   -4.7381  -11.4047    0.0000 C   0  0  0  0  0  0  0  0  0  0  0  0
   -3.5246  -12.2864    0.0000 C   0  0  0  0  0  0  0  0  0  0  0  0
   -3.6814  -13.7782    0.0000 N   0  0  0  0  0  0  0  0  0  0  0  0
   -2.5667  -14.7819    0.0000 C   0  0  0  0  0  0  0  0  0  0  0  0
   -3.1768  -16.1522    0.0000 C   0  0  0  0  0  0  0  0  0  0  0  0
   -4.6686  -15.9954    0.0000 C   0  0  0  0  0  0  0  0  0  0  0  0
   -4.9804  -14.5282    0.0000 C   0  0  0  0  0  0  0  0  0  0  0  0
   -2.1543  -11.6763    0.0000 C   0  0  0  0  0  0  0  0  0  0  0  0
   -1.9975  -10.1845    0.0000 C   0  0  0  0  0  0  0  0  0  0  0  0
   -4.2677   -6.9294    0.0000 C   0  0  0  0  0  0  0  0  0  0  0  0
   -5.6381   -7.5395    0.0000 C   0  0  0  0  0  0  0  0  0  0  0  0
   -6.8516   -6.6578    0.0000 C   0  0  0  0  0  0  0  0  0  0  0  0
   -8.2219   -7.2679    0.0000 C   0  0  0  0  0  0  0  0  0  0  0  0
   -8.3787   -8.7597    0.0000 N   0  0  0  0  0  0  0  0  0  0  0  0
   -7.1652   -9.6414    0.0000 C   0  0  0  0  0  0  0  0  0  0  0  0
   -5.7949   -9.0313    0.0000 C   0  0  0  0  0  0  0  0  0  0  0  0
   -4.1110   -5.4376    0.0000 C   0  0  0  0  0  0  0  0  0  0  0  0
   -2.7406   -4.8275    0.0000 C   0  0  0  0  0  0  0  0  0  0  0  0
   -2.5838   -3.3357    0.0000 C   0  0  0  0  0  0  0  0  0  0  0  0
   -3.7974   -2.4540    0.0000 O   0  0  0  0  0  0  0  0  0  0  0  0
   -1.2135   -2.7256    0.0000 C   0  0  0  0  0  0  0  0  0  0  0  0
   -0.0000   -3.6073    0.0000 C   0  0  0  0  0  0  0  0  0  0  0  0
    1.2135   -2.7256    0.0000 N   0  0  0  0  0  0  0  0  0  0  0  0
    0.7500   -1.2990    0.0000 C   0  0  0  0  0  0  0  0  0  0  0  0
    1.5000    0.0000    0.0000 C   0  0  0  0  0  0  0  0  0  0  0  0
    0.7500    1.2990    0.0000 C   0  0  0  0  0  0  0  0  0  0  0  0
    1.5000    2.5981    0.0000 C   0  0  0  0  0  0  0  0  0  0  0  0
    2.2500    3.8971    0.0000 N   0  0  0  0  0  0  0  0  0  0  0  0
   -0.7500    1.2990    0.0000 C   0  0  0  0  0  0  0  0  0  0  0  0
   -1.5000    0.0000    0.0000 C   0  0  0  0  0  0  0  0  0  0  0  0
   -0.7500   -1.2990    0.0000 C   0  0  0  0  0  0  0  0  0  0  0  0
  1  2  1  0
  2  3  1  0
  2  4  1  0
  4  5  2  0
  5  6  1  0
  6  7  1  0
  7  8  1  0
  8  9  1  0
  9 10  1  0
 10 11  1  0
 11 12  1  0
 12 13  1  0
 13 14  1  0
 14 15  1  0
 10 16  1  0
 16 17  1  0
  6 18  2  0
 18 19  1  0
 19 20  2  0
 20 21  1  0
 21 22  1  0
 22 23  1  0
 23 24  1  0
 18 25  1  0
 25 26  2  0
 26 27  1  0
 27 28  2  0
 27 29  1  0
 29 30  2  0
 30 31  1  0
 31 32  1  0
 32 33  2  0
 33 34  1  0
 34 35  1  0
 35 36  3  0
 34 37  2  0
 37 38  1  0
 38 39  2  0
 30  2  1  0
 39 32  1  0
 26  4  1  0
 39 29  1  0
 17  7  1  0
 24 19  1  0
 15 11  1  0
M  END
>  <Compound_ID>  (260) 
CHEMBL3937655

>  <Molecule Name>  (260) 
nan

>  <Molecular Weight>  (260) 
519.69

>  <AlogP>  (260) 
5.35

>  <Smiles>  (260) 
CC1(C)c2cc(N3CCC(N4CCCC4)CC3)c(C3=CCNCC3)cc2C(=O)c2c1[nH]c1cc(C#N)ccc21

>  <Standard Type>  (260) 
IC50

>  <Standard Relation>  (260) 
'='

>  <Standard Units>  (260) 
nM

>  <Standard Value>  (260) 
1.778

>  <Assay ChEMBL ID>  (260) 
CHEMBL3887074

>  <Assay Description>  (260) 
Inhibition Assay: ALK-inhibiting activity was measured by following an activity of inhibiting phosphorylation by biotinylated peptide (EGPWLEEEEEAYGWMDF). For the detection of phosphorylation of the biotinylated peptide, time-resolved fluorescence measurement was performed using an anti-phosphorylated tyrosine antibody labeled with europium cryptate and streptavidin conjugated to XL665, i.e., an allophycocyanin derivative.

>  <BAO Format ID>  (260) 
BAO_0000357

>  <BAO Label>  (260) 
single protein format

>  <Assay Organism>  (260) 
Homo sapiens

>  <Target ChEMBL ID>  (260) 
CHEMBL4247

>  <Target Name>  (260) 
ALK tyrosine kinase receptor

>  <Target Organism>  (260) 
Homo sapiens

>  <Target Type>  (260) 
SINGLE PROTEIN

>  <Document ChEMBL ID>  (260) 
CHEMBL3886150

>  <Source Description>  (260) 
BindingDB Database

>  <Document Journal>  (260) 
nan

>  <Document Year>  (260) 
2015.0

>  <Active>  (260) 
1.0

>  <bits>  (260) 
<rdkit.DataStructs.cDataStructs.ExplicitBitVect object at 0x000002422F189B60>

>  <Group>  (260) 
G2

$$$$

     RDKit          2D

 36 40  0  0  0  0  0  0  0  0999 V2000
    3.5260    1.2990    0.0000 C   0  0  0  0  0  0  0  0  0  0  0  0
    2.7760    0.0000    0.0000 C   0  0  0  0  0  0  0  0  0  0  0  0
    1.2760    0.0000    0.0000 C   0  0  0  0  0  0  0  0  0  0  0  0
    0.3943    1.2135    0.0000 N   0  0  0  0  0  0  0  0  0  0  0  0
   -1.0323    0.7500    0.0000 N   0  0  0  0  0  0  0  0  0  0  0  0
   -1.0323   -0.7500    0.0000 C   0  0  0  0  0  0  0  0  0  0  0  0
   -2.1470   -1.7537    0.0000 C   0  0  0  0  0  0  0  0  0  0  0  0
   -3.5736   -1.2902    0.0000 C   0  0  0  0  0  0  0  0  0  0  0  0
   -4.6883   -2.2939    0.0000 N   0  0  0  0  0  0  0  0  0  0  0  0
   -3.8855    0.1771    0.0000 O   0  0  0  0  0  0  0  0  0  0  0  0
   -1.8351   -3.2209    0.0000 C   0  0  0  0  0  0  0  0  0  0  0  0
   -2.9499   -4.2246    0.0000 N   0  0  0  0  0  0  0  0  0  0  0  0
   -2.6380   -5.6918    0.0000 C   0  0  0  0  0  0  0  0  0  0  0  0
   -3.7527   -6.6955    0.0000 C   0  0  0  0  0  0  0  0  0  0  0  0
   -3.4408   -8.1628    0.0000 C   0  0  0  0  0  0  0  0  0  0  0  0
   -2.0143   -8.6263    0.0000 C   0  0  0  0  0  0  0  0  0  0  0  0
   -1.7024  -10.0935    0.0000 C   0  0  0  0  0  0  0  0  0  0  0  0
   -2.8171  -11.0972    0.0000 C   0  0  0  0  0  0  0  0  0  0  0  0
   -2.5052  -12.5644    0.0000 C   0  0  0  0  0  0  0  0  0  0  0  0
   -1.0786  -13.0279    0.0000 N   0  0  0  0  0  0  0  0  0  0  0  0
    0.0361  -12.0242    0.0000 C   0  0  0  0  0  0  0  0  0  0  0  0
   -0.2758  -10.5570    0.0000 C   0  0  0  0  0  0  0  0  0  0  0  0
   -0.8995   -7.6226    0.0000 C   0  0  0  0  0  0  0  0  0  0  0  0
   -1.2114   -6.1554    0.0000 C   0  0  0  0  0  0  0  0  0  0  0  0
   -0.0967   -5.1517    0.0000 Cl  0  0  0  0  0  0  0  0  0  0  0  0
   -0.4086   -3.6844    0.0000 N   0  0  0  0  0  0  0  0  0  0  0  0
    0.7062   -2.6807    0.0000 C   0  0  0  0  0  0  0  0  0  0  0  0
    2.1328   -3.1443    0.0000 C   0  0  0  0  0  0  0  0  0  0  0  0
    2.4446   -4.6115    0.0000 C   0  0  0  0  0  0  0  0  0  0  0  0
    1.3299   -5.6152    0.0000 C   0  0  0  0  0  0  0  0  0  0  0  0
    1.6418   -7.0824    0.0000 C   0  0  0  0  0  0  0  0  0  0  0  0
    3.0684   -7.5459    0.0000 C   0  0  0  0  0  0  0  0  0  0  0  0
    4.1831   -6.5422    0.0000 C   0  0  0  0  0  0  0  0  0  0  0  0
    3.8712   -5.0750    0.0000 C   0  0  0  0  0  0  0  0  0  0  0  0
    4.9859   -4.0713    0.0000 Cl  0  0  0  0  0  0  0  0  0  0  0  0
    0.3943   -1.2135    0.0000 N   0  0  0  0  0  0  0  0  0  0  0  0
  1  2  1  0
  2  3  1  0
  3  4  2  0
  4  5  1  0
  5  6  2  0
  6  7  1  0
  7  8  1  0
  8  9  1  0
  8 10  2  0
  7 11  2  0
 11 12  1  0
 12 13  1  0
 13 14  2  0
 14 15  1  0
 15 16  2  0
 16 17  1  0
 17 18  1  0
 18 19  1  0
 19 20  1  0
 20 21  1  0
 21 22  1  0
 16 23  1  0
 23 24  2  0
 24 25  1  0
 11 26  1  0
 26 27  2  0
 27 28  1  0
 28 29  1  0
 29 30  2  0
 30 31  1  0
 31 32  2  0
 32 33  1  0
 33 34  2  0
 34 35  1  0
 27 36  1  0
 36  3  1  0
 36  6  1  0
 24 13  1  0
 34 29  1  0
 22 17  1  0
M  END
>  <Compound_ID>  (261) 
CHEMBL3926619

>  <Molecule Name>  (261) 
nan

>  <Molecular Weight>  (261) 
524.46

>  <AlogP>  (261) 
4.89

>  <Smiles>  (261) 
CCc1nnc2c(C(N)=O)c(Nc3ccc(C4CCNCC4)cc3Cl)nc(Cc3ccccc3Cl)n12

>  <Standard Type>  (261) 
Ki

>  <Standard Relation>  (261) 
'='

>  <Standard Units>  (261) 
nM

>  <Standard Value>  (261) 
2.0

>  <Assay ChEMBL ID>  (261) 
CHEMBL3887723

>  <Assay Description>  (261) 
Enzyme Inhibition Assay: ALK kinase assays were conducted with the indicated final concentrations unless otherwise specified. In 384 well black plates (Axygen), 8 ul of compound (2% DMSO) was incubated with 8 ul Lck-peptide substrate (0.5 uM, biotin-Ahx-GAEEEIYAAFFA-COOH) and 8 ul of a mixture of ALK (3 nM, Millipore) and ATP (50 uM) in reaction buffer (50 mM Hepes, pH 7.4; 10 mM MgCl2; 2 mM MnCl2; 0.1 mM sodium orthovanadate; 0.01% BSA and 1 mM DTT (added fresh before assay) for 1 h at room temperature. Reactions were then quenched by the addition of 30 ul quench solution (streptavidin-allophycocyanin and Europium-cryptate PT66 monoclonal antibody in 40 mM Hepes, pH 7.4; 480 mM KF; 66 mM EDTA; 0.01% Tween-20; and 0.1% BSA) at room temperature. Plates were read 1 h after quenching on an Envision Multilaber Reader and IC50 values were calculated using a sigmoidal fit of the concentration/inhibition response curves. These values were converted to apparent Ki values.

>  <BAO Format ID>  (261) 
BAO_0000357

>  <BAO Label>  (261) 
single protein format

>  <Assay Organism>  (261) 
Homo sapiens

>  <Target ChEMBL ID>  (261) 
CHEMBL4247

>  <Target Name>  (261) 
ALK tyrosine kinase receptor

>  <Target Organism>  (261) 
Homo sapiens

>  <Target Type>  (261) 
SINGLE PROTEIN

>  <Document ChEMBL ID>  (261) 
CHEMBL3886424

>  <Source Description>  (261) 
BindingDB Database

>  <Document Journal>  (261) 
nan

>  <Document Year>  (261) 
2015.0

>  <Active>  (261) 
1.0

>  <bits>  (261) 
<rdkit.DataStructs.cDataStructs.ExplicitBitVect object at 0x000002422F1886D0>

>  <Group>  (261) 
G2

$$$$

     RDKit          2D

 29 32  0  0  0  0  0  0  0  0999 V2000
   -2.1543  -11.6763    0.0000 C   0  0  0  0  0  0  0  0  0  0  0  0
   -1.9975  -10.1845    0.0000 C   0  0  0  0  0  0  0  0  0  0  0  0
   -3.2110   -9.3029    0.0000 O   0  0  0  0  0  0  0  0  0  0  0  0
   -3.0542   -7.8111    0.0000 C   0  0  0  0  0  0  0  0  0  0  0  0
   -1.6839   -7.2010    0.0000 C   0  0  0  0  0  0  0  0  0  0  0  0
   -1.5271   -5.7092    0.0000 C   0  0  0  0  0  0  0  0  0  0  0  0
   -2.7406   -4.8275    0.0000 C   0  0  0  0  0  0  0  0  0  0  0  0
   -4.1110   -5.4376    0.0000 C   0  0  0  0  0  0  0  0  0  0  0  0
   -4.2677   -6.9294    0.0000 C   0  0  0  0  0  0  0  0  0  0  0  0
   -5.6381   -7.5395    0.0000 O   0  0  0  0  0  0  0  0  0  0  0  0
   -6.8516   -6.6578    0.0000 C   0  0  0  0  0  0  0  0  0  0  0  0
   -8.2219   -7.2679    0.0000 C   0  0  0  0  0  0  0  0  0  0  0  0
   -6.6948   -5.1660    0.0000 C   0  0  0  0  0  0  0  0  0  0  0  0
   -2.5838   -3.3357    0.0000 C   0  0  0  0  0  0  0  0  0  0  0  0
   -3.7974   -2.4540    0.0000 O   0  0  0  0  0  0  0  0  0  0  0  0
   -1.2135   -2.7256    0.0000 C   0  0  0  0  0  0  0  0  0  0  0  0
   -0.0000   -3.6073    0.0000 C   0  0  0  0  0  0  0  0  0  0  0  0
    1.2135   -2.7256    0.0000 N   0  0  0  0  0  0  0  0  0  0  0  0
    0.7500   -1.2990    0.0000 C   0  0  0  0  0  0  0  0  0  0  0  0
    1.5000    0.0000    0.0000 C   0  0  0  0  0  0  0  0  0  0  0  0
    0.7500    1.2990    0.0000 C   0  0  0  0  0  0  0  0  0  0  0  0
    1.5000    2.5981    0.0000 C   0  0  0  0  0  0  0  0  0  0  0  0
    2.2500    3.8971    0.0000 N   0  0  0  0  0  0  0  0  0  0  0  0
   -0.7500    1.2990    0.0000 C   0  0  0  0  0  0  0  0  0  0  0  0
   -1.5000    0.0000    0.0000 C   0  0  0  0  0  0  0  0  0  0  0  0
   -0.7500   -1.2990    0.0000 C   0  0  0  0  0  0  0  0  0  0  0  0
   -0.1568   -5.0991    0.0000 C   0  0  0  0  0  0  0  0  0  0  0  0
    0.2061   -6.5545    0.0000 C   0  0  0  0  0  0  0  0  0  0  0  0
    1.3396   -4.9944    0.0000 C   0  0  0  0  0  0  0  0  0  0  0  0
  1  2  2  0
  2  3  1  0
  3  4  1  0
  4  5  2  0
  5  6  1  0
  6  7  2  0
  7  8  1  0
  8  9  2  0
  9 10  1  0
 10 11  1  0
 11 12  1  0
 11 13  1  0
  7 14  1  0
 14 15  2  0
 14 16  1  0
 16 17  2  0
 17 18  1  0
 18 19  1  0
 19 20  2  0
 20 21  1  0
 21 22  1  0
 22 23  3  0
 21 24  2  0
 24 25  1  0
 25 26  2  0
 17 27  1  0
 27 28  1  0
 27 29  1  0
  9  4  1  0
 26 16  1  0
 27  6  1  0
 26 19  1  0
M  END
>  <Compound_ID>  (262) 
CHEMBL3899020

>  <Molecule Name>  (262) 
nan

>  <Molecular Weight>  (262) 
386.45

>  <AlogP>  (262) 
5.22

>  <Smiles>  (262) 
C=COc1cc2c(cc1OC(C)C)C(=O)c1c([nH]c3cc(C#N)ccc13)C2(C)C

>  <Standard Type>  (262) 
IC50

>  <Standard Relation>  (262) 
'='

>  <Standard Units>  (262) 
nM

>  <Standard Value>  (262) 
23.1

>  <Assay ChEMBL ID>  (262) 
CHEMBL3887074

>  <Assay Description>  (262) 
Inhibition Assay: ALK-inhibiting activity was measured by following an activity of inhibiting phosphorylation by biotinylated peptide (EGPWLEEEEEAYGWMDF). For the detection of phosphorylation of the biotinylated peptide, time-resolved fluorescence measurement was performed using an anti-phosphorylated tyrosine antibody labeled with europium cryptate and streptavidin conjugated to XL665, i.e., an allophycocyanin derivative.

>  <BAO Format ID>  (262) 
BAO_0000357

>  <BAO Label>  (262) 
single protein format

>  <Assay Organism>  (262) 
Homo sapiens

>  <Target ChEMBL ID>  (262) 
CHEMBL4247

>  <Target Name>  (262) 
ALK tyrosine kinase receptor

>  <Target Organism>  (262) 
Homo sapiens

>  <Target Type>  (262) 
SINGLE PROTEIN

>  <Document ChEMBL ID>  (262) 
CHEMBL3886150

>  <Source Description>  (262) 
BindingDB Database

>  <Document Journal>  (262) 
nan

>  <Document Year>  (262) 
2015.0

>  <Active>  (262) 
1.0

>  <bits>  (262) 
<rdkit.DataStructs.cDataStructs.ExplicitBitVect object at 0x000002422F188CF0>

>  <Group>  (262) 
G2

$$$$

     RDKit          2D

 49 54  0  0  0  0  0  0  0  0999 V2000
    5.2500   -1.2990    0.0000 C   0  0  0  0  0  0  0  0  0  0  0  0
    3.7500   -1.2990    0.0000 C   0  0  0  0  0  0  0  0  0  0  0  0
    3.0000   -2.5981    0.0000 C   0  0  0  0  0  0  0  0  0  0  0  0
    3.0000    0.0000    0.0000 O   0  0  0  0  0  0  0  0  0  0  0  0
    1.5000    0.0000    0.0000 C   0  0  0  0  0  0  0  0  0  0  0  0
    0.7500   -1.2990    0.0000 C   0  0  0  0  0  0  0  0  0  0  0  0
   -0.7500   -1.2990    0.0000 C   0  0  0  0  0  0  0  0  0  0  0  0
   -1.5000    0.0000    0.0000 C   0  0  0  0  0  0  0  0  0  0  0  0
   -0.7500    1.2990    0.0000 C   0  0  0  0  0  0  0  0  0  0  0  0
    0.7500    1.2990    0.0000 C   0  0  0  0  0  0  0  0  0  0  0  0
    1.5000    2.5981    0.0000 N   0  0  0  0  0  0  0  0  0  0  0  0
    3.0000    2.5981    0.0000 C   0  0  0  0  0  0  0  0  0  0  0  0
    3.7500    1.2990    0.0000 N   0  0  0  0  0  0  0  0  0  0  0  0
    5.2500    1.2990    0.0000 C   0  0  0  0  0  0  0  0  0  0  0  0
    6.0000    2.5981    0.0000 C   0  0  0  0  0  0  0  0  0  0  0  0
    7.5000    2.5981    0.0000 Cl  0  0  0  0  0  0  0  0  0  0  0  0
    5.2500    3.8971    0.0000 C   0  0  0  0  0  0  0  0  0  0  0  0
    6.0000    5.1962    0.0000 N   0  0  0  0  0  0  0  0  0  0  0  0
    5.2500    6.4952    0.0000 C   0  0  0  0  0  0  0  0  0  0  0  0
    3.7500    6.4952    0.0000 C   0  0  0  0  0  0  0  0  0  0  0  0
    3.0000    7.7942    0.0000 C   0  0  0  0  0  0  0  0  0  0  0  0
    3.7500    9.0933    0.0000 C   0  0  0  0  0  0  0  0  0  0  0  0
    5.2500    9.0933    0.0000 C   0  0  0  0  0  0  0  0  0  0  0  0
    6.0000    7.7942    0.0000 C   0  0  0  0  0  0  0  0  0  0  0  0
    7.5000    7.7942    0.0000 S   0  0  0  0  0  0  0  0  0  0  0  0
    7.5000    6.2942    0.0000 O   0  0  0  0  0  0  0  0  0  0  0  0
    7.5000    9.2942    0.0000 O   0  0  0  0  0  0  0  0  0  0  0  0
    9.0000    7.7942    0.0000 C   0  0  0  0  0  0  0  0  0  0  0  0
    9.7500    9.0933    0.0000 C   0  0  0  0  0  0  0  0  0  0  0  0
    9.7500    6.4952    0.0000 C   0  0  0  0  0  0  0  0  0  0  0  0
    3.7500    3.8971    0.0000 N   0  0  0  0  0  0  0  0  0  0  0  0
   -2.9672   -0.3119    0.0000 C   0  0  0  0  0  0  0  0  0  0  0  0
   -4.0819    0.6918    0.0000 O   0  0  0  0  0  0  0  0  0  0  0  0
   -3.1240   -1.8037    0.0000 N   0  0  0  0  0  0  0  0  0  0  0  0
   -4.4231   -2.5537    0.0000 C   0  0  0  0  0  0  0  0  0  0  0  0
   -5.7221   -1.8037    0.0000 C   0  0  0  0  0  0  0  0  0  0  0  0
   -7.0211   -2.5537    0.0000 C   0  0  0  0  0  0  0  0  0  0  0  0
   -7.0211   -4.0537    0.0000 N   0  0  0  0  0  0  0  0  0  0  0  0
   -8.3202   -4.8037    0.0000 C   0  0  0  0  0  0  0  0  0  0  0  0
   -8.3202   -6.3037    0.0000 O   0  0  0  0  0  0  0  0  0  0  0  0
   -9.6192   -4.0537    0.0000 C   0  0  0  0  0  0  0  0  0  0  0  0
  -10.9895   -4.6638    0.0000 C   0  0  0  0  0  0  0  0  0  0  0  0
  -11.9932   -3.5490    0.0000 C   0  0  0  0  0  0  0  0  0  0  0  0
  -11.2432   -2.2500    0.0000 C   0  0  0  0  0  0  0  0  0  0  0  0
   -9.7760   -2.5619    0.0000 N   0  0  0  0  0  0  0  0  0  0  0  0
   -8.6613   -1.5582    0.0000 C   0  0  0  0  0  0  0  0  0  0  0  0
   -5.7221   -4.8037    0.0000 C   0  0  0  0  0  0  0  0  0  0  0  0
   -4.4231   -4.0537    0.0000 C   0  0  0  0  0  0  0  0  0  0  0  0
   -1.7537   -2.4138    0.0000 C   0  0  0  0  0  0  0  0  0  0  0  0
  1  2  1  0
  2  3  1  0
  2  4  1  0
  4  5  1  0
  5  6  2  0
  6  7  1  0
  7  8  2  0
  8  9  1  0
  9 10  2  0
 10 11  1  0
 11 12  1  0
 12 13  2  0
 13 14  1  0
 14 15  2  0
 15 16  1  0
 15 17  1  0
 17 18  1  0
 18 19  1  0
 19 20  2  0
 20 21  1  0
 21 22  2  0
 22 23  1  0
 23 24  2  0
 24 25  1  0
 25 26  2  0
 25 27  2  0
 25 28  1  0
 28 29  1  0
 28 30  1  0
 17 31  2  0
  8 32  1  0
 32 33  2  0
 32 34  1  0
 34 35  1  0
 35 36  1  0
 36 37  1  0
 37 38  1  0
 38 39  1  0
 39 40  2  0
 41 39  1  6
 41 42  1  0
 42 43  1  0
 43 44  1  0
 44 45  1  0
 45 46  1  0
 38 47  1  0
 47 48  1  0
 34 49  1  0
 10  5  1  0
 31 12  1  0
 48 35  1  0
 49  7  1  0
 24 19  1  0
 45 41  1  0
M  END
>  <Compound_ID>  (263) 
CHEMBL3651838

>  <Molecule Name>  (263) 
nan

>  <Molecular Weight>  (263) 
710.3

>  <AlogP>  (263) 
5.63

>  <Smiles>  (263) 
CC(C)Oc1cc2c(cc1Nc1ncc(Cl)c(Nc3ccccc3S(=O)(=O)C(C)C)n1)C(=O)N(C1CCN(C(=O)[C@@H]3CCCN3C)CC1)C2

>  <Standard Type>  (263) 
IC50

>  <Standard Relation>  (263) 
'='

>  <Standard Units>  (263) 
nM

>  <Standard Value>  (263) 
23.0

>  <Assay ChEMBL ID>  (263) 
CHEMBL3705165

>  <Assay Description>  (263) 
Enzyme Assay: The inhibition of ALK tyrosine kinase activity may be demonstrated using known methods, for example using the recombinant kinase domain of the ALK in analogy to the VEGF-R kinase assay described in J. Wood et al. Cancer Res. 60, 2178-2189 (2000).

>  <BAO Format ID>  (263) 
BAO_0000357

>  <BAO Label>  (263) 
single protein format

>  <Assay Organism>  (263) 
Homo sapiens

>  <Target ChEMBL ID>  (263) 
CHEMBL4247

>  <Target Name>  (263) 
ALK tyrosine kinase receptor

>  <Target Organism>  (263) 
Homo sapiens

>  <Target Type>  (263) 
SINGLE PROTEIN

>  <Document ChEMBL ID>  (263) 
CHEMBL3638924

>  <Source Description>  (263) 
BindingDB Database

>  <Document Journal>  (263) 
nan

>  <Document Year>  (263) 
2013.0

>  <Active>  (263) 
1.0

>  <bits>  (263) 
<rdkit.DataStructs.cDataStructs.ExplicitBitVect object at 0x000002422F18AC00>

>  <Group>  (263) 
G2

$$$$

     RDKit          2D

 38 41  0  0  0  0  0  0  0  0999 V2000
   -6.2940    7.2357    0.0000 C   0  0  0  0  0  0  0  0  0  0  0  0
   -5.1793    6.2320    0.0000 O   0  0  0  0  0  0  0  0  0  0  0  0
   -3.7527    6.6955    0.0000 C   0  0  0  0  0  0  0  0  0  0  0  0
   -3.4408    8.1628    0.0000 C   0  0  0  0  0  0  0  0  0  0  0  0
   -2.0143    8.6263    0.0000 C   0  0  0  0  0  0  0  0  0  0  0  0
   -1.7024   10.0935    0.0000 C   0  0  0  0  0  0  0  0  0  0  0  0
   -2.8171   11.0972    0.0000 O   0  0  0  0  0  0  0  0  0  0  0  0
   -0.2758   10.5570    0.0000 N   0  0  0  0  0  0  0  0  0  0  0  0
    0.0361   12.0242    0.0000 C   0  0  0  0  0  0  0  0  0  0  0  0
    1.4627   12.4878    0.0000 C   0  0  0  0  0  0  0  0  0  0  0  0
    1.7745   13.9550    0.0000 N   0  0  0  0  0  0  0  0  0  0  0  0
    3.2011   14.4185    0.0000 C   0  0  0  0  0  0  0  0  0  0  0  0
    0.6598   14.9587    0.0000 C   0  0  0  0  0  0  0  0  0  0  0  0
   -0.8995    7.6226    0.0000 C   0  0  0  0  0  0  0  0  0  0  0  0
   -1.2114    6.1554    0.0000 C   0  0  0  0  0  0  0  0  0  0  0  0
   -2.6380    5.6918    0.0000 C   0  0  0  0  0  0  0  0  0  0  0  0
   -2.9499    4.2246    0.0000 N   0  0  0  0  0  0  0  0  0  0  0  0
   -1.8351    3.2209    0.0000 C   0  0  0  0  0  0  0  0  0  0  0  0
   -0.4086    3.6844    0.0000 N   0  0  0  0  0  0  0  0  0  0  0  0
    0.7062    2.6807    0.0000 C   0  0  0  0  0  0  0  0  0  0  0  0
    2.1328    3.1443    0.0000 C   0  0  0  0  0  0  0  0  0  0  0  0
    2.4446    4.6115    0.0000 C   0  0  0  0  0  0  0  0  0  0  0  0
    3.8712    5.0750    0.0000 C   0  0  0  0  0  0  0  0  0  0  0  0
    4.9859    4.0713    0.0000 Cl  0  0  0  0  0  0  0  0  0  0  0  0
    4.1831    6.5422    0.0000 C   0  0  0  0  0  0  0  0  0  0  0  0
    3.0684    7.5459    0.0000 C   0  0  0  0  0  0  0  0  0  0  0  0
    1.6418    7.0824    0.0000 C   0  0  0  0  0  0  0  0  0  0  0  0
    1.3299    5.6152    0.0000 C   0  0  0  0  0  0  0  0  0  0  0  0
   -0.0967    5.1517    0.0000 Cl  0  0  0  0  0  0  0  0  0  0  0  0
    0.3943    1.2135    0.0000 C   0  0  0  0  0  0  0  0  0  0  0  0
    1.2760    0.0000    0.0000 N   0  0  0  0  0  0  0  0  0  0  0  0
    0.3943   -1.2135    0.0000 C   0  0  0  0  0  0  0  0  0  0  0  0
   -1.0323   -0.7500    0.0000 N   0  0  0  0  0  0  0  0  0  0  0  0
   -1.0323    0.7500    0.0000 C   0  0  0  0  0  0  0  0  0  0  0  0
   -2.1470    1.7537    0.0000 C   0  0  0  0  0  0  0  0  0  0  0  0
   -3.5736    1.2902    0.0000 C   0  0  0  0  0  0  0  0  0  0  0  0
   -4.6883    2.2939    0.0000 N   0  0  0  0  0  0  0  0  0  0  0  0
   -3.8855   -0.1771    0.0000 O   0  0  0  0  0  0  0  0  0  0  0  0
  1  2  1  0
  2  3  1  0
  3  4  2  0
  4  5  1  0
  5  6  1  0
  6  7  2  0
  6  8  1  0
  8  9  1  0
  9 10  1  0
 10 11  1  0
 11 12  1  0
 11 13  1  0
  5 14  2  0
 14 15  1  0
 15 16  2  0
 16 17  1  0
 17 18  1  0
 18 19  2  0
 19 20  1  0
 20 21  1  0
 21 22  1  0
 22 23  2  0
 23 24  1  0
 23 25  1  0
 25 26  2  0
 26 27  1  0
 27 28  2  0
 28 29  1  0
 20 30  2  0
 30 31  1  0
 31 32  2  0
 32 33  1  0
 33 34  1  0
 34 35  2  0
 35 36  1  0
 36 37  1  0
 36 38  2  0
 16  3  1  0
 35 18  1  0
 28 22  1  0
 34 30  1  0
M  END
>  <Compound_ID>  (264) 
CHEMBL3919748

>  <Molecule Name>  (264) 
nan

>  <Molecular Weight>  (264) 
556.45

>  <AlogP>  (264) 
4.00

>  <Smiles>  (264) 
COc1cc(C(=O)NCCN(C)C)ccc1Nc1nc(Cc2c(Cl)cccc2Cl)c2nc[nH]c2c1C(N)=O

>  <Standard Type>  (264) 
Ki

>  <Standard Relation>  (264) 
'='

>  <Standard Units>  (264) 
nM

>  <Standard Value>  (264) 
1.0

>  <Assay ChEMBL ID>  (264) 
CHEMBL3887723

>  <Assay Description>  (264) 
Enzyme Inhibition Assay: ALK kinase assays were conducted with the indicated final concentrations unless otherwise specified. In 384 well black plates (Axygen), 8 ul of compound (2% DMSO) was incubated with 8 ul Lck-peptide substrate (0.5 uM, biotin-Ahx-GAEEEIYAAFFA-COOH) and 8 ul of a mixture of ALK (3 nM, Millipore) and ATP (50 uM) in reaction buffer (50 mM Hepes, pH 7.4; 10 mM MgCl2; 2 mM MnCl2; 0.1 mM sodium orthovanadate; 0.01% BSA and 1 mM DTT (added fresh before assay) for 1 h at room temperature. Reactions were then quenched by the addition of 30 ul quench solution (streptavidin-allophycocyanin and Europium-cryptate PT66 monoclonal antibody in 40 mM Hepes, pH 7.4; 480 mM KF; 66 mM EDTA; 0.01% Tween-20; and 0.1% BSA) at room temperature. Plates were read 1 h after quenching on an Envision Multilaber Reader and IC50 values were calculated using a sigmoidal fit of the concentration/inhibition response curves. These values were converted to apparent Ki values.

>  <BAO Format ID>  (264) 
BAO_0000357

>  <BAO Label>  (264) 
single protein format

>  <Assay Organism>  (264) 
Homo sapiens

>  <Target ChEMBL ID>  (264) 
CHEMBL4247

>  <Target Name>  (264) 
ALK tyrosine kinase receptor

>  <Target Organism>  (264) 
Homo sapiens

>  <Target Type>  (264) 
SINGLE PROTEIN

>  <Document ChEMBL ID>  (264) 
CHEMBL3886424

>  <Source Description>  (264) 
BindingDB Database

>  <Document Journal>  (264) 
nan

>  <Document Year>  (264) 
2015.0

>  <Active>  (264) 
1.0

>  <bits>  (264) 
<rdkit.DataStructs.cDataStructs.ExplicitBitVect object at 0x000002422F18ACE0>

>  <Group>  (264) 
G2

$$$$

     RDKit          2D

 37 41  0  0  0  0  0  0  0  0999 V2000
   -6.2940    7.2357    0.0000 C   0  0  0  0  0  0  0  0  0  0  0  0
   -5.1793    6.2320    0.0000 O   0  0  0  0  0  0  0  0  0  0  0  0
   -3.7527    6.6955    0.0000 C   0  0  0  0  0  0  0  0  0  0  0  0
   -3.4408    8.1628    0.0000 C   0  0  0  0  0  0  0  0  0  0  0  0
   -2.0143    8.6263    0.0000 C   0  0  0  0  0  0  0  0  0  0  0  0
   -1.7024   10.0935    0.0000 N   0  0  0  0  0  0  0  0  0  0  0  0
   -0.2758   10.5570    0.0000 C   0  0  0  0  0  0  0  0  0  0  0  0
    0.0361   12.0242    0.0000 C   0  0  0  0  0  0  0  0  0  0  0  0
   -1.0786   13.0279    0.0000 N   0  0  0  0  0  0  0  0  0  0  0  0
   -2.5052   12.5644    0.0000 C   0  0  0  0  0  0  0  0  0  0  0  0
   -2.8171   11.0972    0.0000 C   0  0  0  0  0  0  0  0  0  0  0  0
   -0.8995    7.6226    0.0000 C   0  0  0  0  0  0  0  0  0  0  0  0
   -1.2114    6.1554    0.0000 C   0  0  0  0  0  0  0  0  0  0  0  0
   -2.6380    5.6918    0.0000 C   0  0  0  0  0  0  0  0  0  0  0  0
   -2.9499    4.2246    0.0000 N   0  0  0  0  0  0  0  0  0  0  0  0
   -1.8351    3.2209    0.0000 C   0  0  0  0  0  0  0  0  0  0  0  0
   -0.4086    3.6844    0.0000 N   0  0  0  0  0  0  0  0  0  0  0  0
    0.7062    2.6807    0.0000 C   0  0  0  0  0  0  0  0  0  0  0  0
    2.1328    3.1443    0.0000 C   0  0  0  0  0  0  0  0  0  0  0  0
    2.4446    4.6115    0.0000 C   0  0  0  0  0  0  0  0  0  0  0  0
    3.8712    5.0750    0.0000 C   0  0  0  0  0  0  0  0  0  0  0  0
    4.9859    4.0713    0.0000 Cl  0  0  0  0  0  0  0  0  0  0  0  0
    4.1831    6.5422    0.0000 C   0  0  0  0  0  0  0  0  0  0  0  0
    3.0684    7.5459    0.0000 C   0  0  0  0  0  0  0  0  0  0  0  0
    1.6418    7.0824    0.0000 C   0  0  0  0  0  0  0  0  0  0  0  0
    1.3299    5.6152    0.0000 C   0  0  0  0  0  0  0  0  0  0  0  0
   -0.0967    5.1517    0.0000 Cl  0  0  0  0  0  0  0  0  0  0  0  0
    0.3943    1.2135    0.0000 N   0  0  0  0  0  0  0  0  0  0  0  0
    1.2760    0.0000    0.0000 C   0  0  0  0  0  0  0  0  0  0  0  0
    2.7760    0.0000    0.0000 C   0  0  0  0  0  0  0  0  0  0  0  0
    0.3943   -1.2135    0.0000 N   0  0  0  0  0  0  0  0  0  0  0  0
   -1.0323   -0.7500    0.0000 N   0  0  0  0  0  0  0  0  0  0  0  0
   -1.0323    0.7500    0.0000 C   0  0  0  0  0  0  0  0  0  0  0  0
   -2.1470    1.7537    0.0000 C   0  0  0  0  0  0  0  0  0  0  0  0
   -3.5736    1.2902    0.0000 C   0  0  0  0  0  0  0  0  0  0  0  0
   -4.6883    2.2939    0.0000 N   0  0  0  0  0  0  0  0  0  0  0  0
   -3.8855   -0.1771    0.0000 O   0  0  0  0  0  0  0  0  0  0  0  0
  1  2  1  0
  2  3  1  0
  3  4  2  0
  4  5  1  0
  5  6  1  0
  6  7  1  0
  7  8  1  0
  8  9  1  0
  9 10  1  0
 10 11  1  0
  5 12  2  0
 12 13  1  0
 13 14  2  0
 14 15  1  0
 15 16  1  0
 16 17  1  0
 17 18  2  0
 18 19  1  0
 19 20  1  0
 20 21  2  0
 21 22  1  0
 21 23  1  0
 23 24  2  0
 24 25  1  0
 25 26  2  0
 26 27  1  0
 18 28  1  0
 28 29  1  0
 29 30  1  0
 29 31  2  0
 31 32  1  0
 32 33  2  0
 33 34  1  0
 34 35  1  0
 35 36  1  0
 35 37  2  0
 14  3  1  0
 34 16  2  0
 11  6  1  0
 26 20  1  0
 33 28  1  0
M  END
>  <Compound_ID>  (265) 
CHEMBL3950825

>  <Molecule Name>  (265) 
nan

>  <Molecular Weight>  (265) 
541.44

>  <AlogP>  (265) 
3.59

>  <Smiles>  (265) 
COc1cc(N2CCNCC2)ccc1Nc1nc(Cc2c(Cl)cccc2Cl)n2c(C)nnc2c1C(N)=O

>  <Standard Type>  (265) 
Ki

>  <Standard Relation>  (265) 
'='

>  <Standard Units>  (265) 
nM

>  <Standard Value>  (265) 
2.0

>  <Assay ChEMBL ID>  (265) 
CHEMBL3887723

>  <Assay Description>  (265) 
Enzyme Inhibition Assay: ALK kinase assays were conducted with the indicated final concentrations unless otherwise specified. In 384 well black plates (Axygen), 8 ul of compound (2% DMSO) was incubated with 8 ul Lck-peptide substrate (0.5 uM, biotin-Ahx-GAEEEIYAAFFA-COOH) and 8 ul of a mixture of ALK (3 nM, Millipore) and ATP (50 uM) in reaction buffer (50 mM Hepes, pH 7.4; 10 mM MgCl2; 2 mM MnCl2; 0.1 mM sodium orthovanadate; 0.01% BSA and 1 mM DTT (added fresh before assay) for 1 h at room temperature. Reactions were then quenched by the addition of 30 ul quench solution (streptavidin-allophycocyanin and Europium-cryptate PT66 monoclonal antibody in 40 mM Hepes, pH 7.4; 480 mM KF; 66 mM EDTA; 0.01% Tween-20; and 0.1% BSA) at room temperature. Plates were read 1 h after quenching on an Envision Multilaber Reader and IC50 values were calculated using a sigmoidal fit of the concentration/inhibition response curves. These values were converted to apparent Ki values.

>  <BAO Format ID>  (265) 
BAO_0000357

>  <BAO Label>  (265) 
single protein format

>  <Assay Organism>  (265) 
Homo sapiens

>  <Target ChEMBL ID>  (265) 
CHEMBL4247

>  <Target Name>  (265) 
ALK tyrosine kinase receptor

>  <Target Organism>  (265) 
Homo sapiens

>  <Target Type>  (265) 
SINGLE PROTEIN

>  <Document ChEMBL ID>  (265) 
CHEMBL3886424

>  <Source Description>  (265) 
BindingDB Database

>  <Document Journal>  (265) 
nan

>  <Document Year>  (265) 
2015.0

>  <Active>  (265) 
1.0

>  <bits>  (265) 
<rdkit.DataStructs.cDataStructs.ExplicitBitVect object at 0x000002422F189460>

>  <Group>  (265) 
G2

$$$$

     RDKit          2D

 29 33  0  0  0  0  0  0  0  0999 V2000
    7.5000   -2.5981    0.0000 O   0  0  0  0  0  0  0  0  0  0  0  0
    6.0000   -2.5981    0.0000 C   0  0  0  0  0  0  0  0  0  0  0  0
    5.2500   -3.8971    0.0000 C   0  0  0  0  0  0  0  0  0  0  0  0
    3.7500   -3.8971    0.0000 C   0  0  0  0  0  0  0  0  0  0  0  0
    3.0000   -2.5981    0.0000 C   0  0  0  0  0  0  0  0  0  0  0  0
    1.5000   -2.5981    0.0000 N   0  0  0  0  0  0  0  0  0  0  0  0
    0.7500   -1.2990    0.0000 C   0  0  0  0  0  0  0  0  0  0  0  0
    1.5000    0.0000    0.0000 C   0  0  0  0  0  0  0  0  0  0  0  0
    0.7500    1.2990    0.0000 C   0  0  0  0  0  0  0  0  0  0  0  0
   -0.7500    1.2990    0.0000 N   0  0  0  0  0  0  0  0  0  0  0  0
   -1.5000    0.0000    0.0000 C   0  0  0  0  0  0  0  0  0  0  0  0
   -3.0000    0.0000    0.0000 C   0  0  0  0  0  0  0  0  0  0  0  0
   -3.7500   -1.2990    0.0000 C   0  0  0  0  0  0  0  0  0  0  0  0
   -5.2500   -1.2990    0.0000 C   0  0  0  0  0  0  0  0  0  0  0  0
   -6.1317   -2.5126    0.0000 C   0  0  0  0  0  0  0  0  0  0  0  0
   -7.5583   -2.0490    0.0000 N   0  0  0  0  0  0  0  0  0  0  0  0
   -7.5583   -0.5490    0.0000 N   0  0  0  0  0  0  0  0  0  0  0  0
   -8.7718    0.3326    0.0000 C   0  0  0  0  0  0  0  0  0  0  0  0
   -8.6150    1.8244    0.0000 C   0  0  0  0  0  0  0  0  0  0  0  0
   -9.8285    2.7061    0.0000 C   0  0  0  0  0  0  0  0  0  0  0  0
  -11.1988    2.0960    0.0000 N   0  0  0  0  0  0  0  0  0  0  0  0
  -11.3556    0.6042    0.0000 C   0  0  0  0  0  0  0  0  0  0  0  0
  -10.1421   -0.2775    0.0000 C   0  0  0  0  0  0  0  0  0  0  0  0
   -6.1317   -0.0855    0.0000 C   0  0  0  0  0  0  0  0  0  0  0  0
   -3.0000   -2.5981    0.0000 C   0  0  0  0  0  0  0  0  0  0  0  0
   -1.5000   -2.5981    0.0000 C   0  0  0  0  0  0  0  0  0  0  0  0
   -0.7500   -1.2990    0.0000 C   0  0  0  0  0  0  0  0  0  0  0  0
    3.7500   -1.2990    0.0000 C   0  0  0  0  0  0  0  0  0  0  0  0
    5.2500   -1.2990    0.0000 C   0  0  0  0  0  0  0  0  0  0  0  0
  1  2  1  0
  2  3  2  0
  3  4  1  0
  4  5  2  0
  5  6  1  0
  6  7  1  0
  7  8  2  0
  8  9  1  0
  9 10  2  0
 10 11  1  0
 11 12  2  0
 12 13  1  0
 13 14  1  0
 14 15  1  0
 15 16  2  0
 16 17  1  0
 17 18  1  0
 18 19  1  0
 19 20  1  0
 20 21  1  0
 21 22  1  0
 22 23  1  0
 17 24  1  0
 13 25  2  0
 25 26  1  0
 26 27  2  0
  5 28  1  0
 28 29  2  0
 29  2  1  0
 27  7  1  0
 27 11  1  0
 24 14  2  0
 23 18  1  0
M  END
>  <Compound_ID>  (266) 
CHEMBL4086648

>  <Molecule Name>  (266) 
nan

>  <Molecular Weight>  (266) 
385.47

>  <AlogP>  (266) 
4.47

>  <Smiles>  (266) 
Oc1ccc(Nc2ccnc3cc(-c4cnn(C5CCNCC5)c4)ccc23)cc1

>  <Standard Type>  (266) 
IC50

>  <Standard Relation>  (266) 
'='

>  <Standard Units>  (266) 
nM

>  <Standard Value>  (266) 
26.4

>  <Assay ChEMBL ID>  (266) 
CHEMBL4026782

>  <Assay Description>  (266) 
Inhibition of human wild type ALK using YRRAAVPPSPSLSRHSSPHQ(pS)EDEEE as substrate preincubated for 20 mins followed by [gamma-33P]-ATP addition after 2 hrs by filter binding assay

>  <BAO Format ID>  (266) 
BAO_0000357

>  <BAO Label>  (266) 
single protein format

>  <Assay Organism>  (266) 
Homo sapiens

>  <Target ChEMBL ID>  (266) 
CHEMBL4247

>  <Target Name>  (266) 
ALK tyrosine kinase receptor

>  <Target Organism>  (266) 
Homo sapiens

>  <Target Type>  (266) 
SINGLE PROTEIN

>  <Document ChEMBL ID>  (266) 
CHEMBL4024756

>  <Source Description>  (266) 
Scientific Literature

>  <Document Journal>  (266) 
J Med Chem

>  <Document Year>  (266) 
2017.0

>  <Active>  (266) 
1.0

>  <bits>  (266) 
<rdkit.DataStructs.cDataStructs.ExplicitBitVect object at 0x000002422F189540>

>  <Group>  (266) 
G2

$$$$

     RDKit          2D

 22 25  0  0  0  0  0  0  0  0999 V2000
   -6.4937   -2.7256    0.0000 C   0  0  0  0  0  0  0  0  0  0  0  0
   -5.0672   -3.1891    0.0000 C   0  0  0  0  0  0  0  0  0  0  0  0
   -4.6036   -4.6157    0.0000 C   0  0  0  0  0  0  0  0  0  0  0  0
   -3.1036   -4.6157    0.0000 C   0  0  0  0  0  0  0  0  0  0  0  0
   -2.6401   -3.1891    0.0000 C   0  0  0  0  0  0  0  0  0  0  0  0
   -1.2135   -2.7256    0.0000 C   0  0  0  0  0  0  0  0  0  0  0  0
   -0.0000   -3.6073    0.0000 N   0  0  0  0  0  0  0  0  0  0  0  0
    1.2135   -2.7256    0.0000 N   0  0  0  0  0  0  0  0  0  0  0  0
    0.7500   -1.2990    0.0000 C   0  0  0  0  0  0  0  0  0  0  0  0
    1.5000    0.0000    0.0000 N   0  0  0  0  0  0  0  0  0  0  0  0
    0.7500    1.2990    0.0000 C   0  0  0  0  0  0  0  0  0  0  0  0
    1.5000    2.5981    0.0000 C   0  0  0  0  0  0  0  0  0  0  0  0
    3.0000    2.5981    0.0000 C   0  0  0  0  0  0  0  0  0  0  0  0
    3.7500    3.8971    0.0000 C   0  0  0  0  0  0  0  0  0  0  0  0
    3.0000    5.1962    0.0000 C   0  0  0  0  0  0  0  0  0  0  0  0
    3.7500    6.4952    0.0000 O   0  0  0  0  0  0  0  0  0  0  0  0
    1.5000    5.1962    0.0000 C   0  0  0  0  0  0  0  0  0  0  0  0
    0.7500    3.8971    0.0000 C   0  0  0  0  0  0  0  0  0  0  0  0
   -0.7500    1.2990    0.0000 C   0  0  0  0  0  0  0  0  0  0  0  0
   -1.5000    0.0000    0.0000 C   0  0  0  0  0  0  0  0  0  0  0  0
   -0.7500   -1.2990    0.0000 C   0  0  0  0  0  0  0  0  0  0  0  0
   -3.8536   -2.3075    0.0000 O   0  0  0  0  0  0  0  0  0  0  0  0
  1  2  1  0
  2  3  2  0
  3  4  1  0
  4  5  2  0
  5  6  1  0
  6  7  2  0
  7  8  1  0
  8  9  1  0
  9 10  2  0
 10 11  1  0
 11 12  1  0
 12 13  2  0
 13 14  1  0
 14 15  2  0
 15 16  1  0
 15 17  1  0
 17 18  2  0
 11 19  2  0
 19 20  1  0
 20 21  2  0
  5 22  1  0
 22  2  1  0
 21  6  1  0
 21  9  1  0
 18 12  1  0
M  END
>  <Compound_ID>  (267) 
CHEMBL4472823

>  <Molecule Name>  (267) 
nan

>  <Molecular Weight>  (267) 
291.31

>  <AlogP>  (267) 
3.90

>  <Smiles>  (267) 
Cc1ccc(-c2n[nH]c3nc(-c4ccc(O)cc4)ccc23)o1

>  <Standard Type>  (267) 
IC50

>  <Standard Relation>  (267) 
'='

>  <Standard Units>  (267) 
nM

>  <Standard Value>  (267) 
53.95

>  <Assay ChEMBL ID>  (267) 
CHEMBL4370936

>  <Assay Description>  (267) 
Inhibition of recombinant ALK (unknown origin) using peptide substrate measured after 1 hr by LanthaScreen assay

>  <BAO Format ID>  (267) 
BAO_0000357

>  <BAO Label>  (267) 
single protein format

>  <Assay Organism>  (267) 
Homo sapiens

>  <Target ChEMBL ID>  (267) 
CHEMBL4247

>  <Target Name>  (267) 
ALK tyrosine kinase receptor

>  <Target Organism>  (267) 
Homo sapiens

>  <Target Type>  (267) 
SINGLE PROTEIN

>  <Document ChEMBL ID>  (267) 
CHEMBL4368941

>  <Source Description>  (267) 
Scientific Literature

>  <Document Journal>  (267) 
Bioorg Med Chem Lett

>  <Document Year>  (267) 
2019.0

>  <Active>  (267) 
1.0

>  <bits>  (267) 
<rdkit.DataStructs.cDataStructs.ExplicitBitVect object at 0x000002422F189620>

>  <Group>  (267) 
G2

$$$$

     RDKit          2D

 34 39  0  0  0  0  0  0  0  0999 V2000
    2.6491   -3.5623    0.0000 C   0  0  0  0  0  0  0  0  0  0  0  0
    1.5000   -2.5981    0.0000 C   0  0  0  0  0  0  0  0  0  0  0  0
    2.6491   -1.6339    0.0000 C   0  0  0  0  0  0  0  0  0  0  0  0
    0.7500   -1.2990    0.0000 C   0  0  0  0  0  0  0  0  0  0  0  0
    1.5000    0.0000    0.0000 C   0  0  0  0  0  0  0  0  0  0  0  0
    0.7500    1.2990    0.0000 C   0  0  0  0  0  0  0  0  0  0  0  0
    1.5000    2.5981    0.0000 C   0  0  0  0  0  0  0  0  0  0  0  0
    3.0000    2.5981    0.0000 C   0  0  0  0  0  0  0  0  0  0  0  0
    3.7500    3.8971    0.0000 C   0  0  0  0  0  0  0  0  0  0  0  0
    3.0000    5.1962    0.0000 N   0  0  0  0  0  0  0  0  0  0  0  0
    3.7500    6.4952    0.0000 C   0  0  0  0  0  0  0  0  0  0  0  0
    5.2500    6.4952    0.0000 C   0  0  0  0  0  0  0  0  0  0  0  0
    6.1317    7.7087    0.0000 C   0  0  0  0  0  0  0  0  0  0  0  0
    7.5583    7.2452    0.0000 C   0  0  0  0  0  0  0  0  0  0  0  0
    7.5583    5.7452    0.0000 O   0  0  0  0  0  0  0  0  0  0  0  0
    6.1317    5.2817    0.0000 C   0  0  0  0  0  0  0  0  0  0  0  0
    1.5000    5.1962    0.0000 C   0  0  0  0  0  0  0  0  0  0  0  0
    0.7500    3.8971    0.0000 C   0  0  0  0  0  0  0  0  0  0  0  0
   -0.7500    1.2990    0.0000 C   0  0  0  0  0  0  0  0  0  0  0  0
   -1.5000    0.0000    0.0000 C   0  0  0  0  0  0  0  0  0  0  0  0
   -0.7500   -1.2990    0.0000 C   0  0  0  0  0  0  0  0  0  0  0  0
   -1.5000   -2.5981    0.0000 C   0  0  0  0  0  0  0  0  0  0  0  0
   -3.0000   -2.5981    0.0000 O   0  0  0  0  0  0  0  0  0  0  0  0
   -0.7500   -3.8971    0.0000 C   0  0  0  0  0  0  0  0  0  0  0  0
    0.7500   -3.8971    0.0000 C   0  0  0  0  0  0  0  0  0  0  0  0
    1.2135   -5.3237    0.0000 N   0  0  0  0  0  0  0  0  0  0  0  0
    0.0000   -6.2054    0.0000 C   0  0  0  0  0  0  0  0  0  0  0  0
   -0.1568   -7.6972    0.0000 C   0  0  0  0  0  0  0  0  0  0  0  0
   -1.5271   -8.3073    0.0000 C   0  0  0  0  0  0  0  0  0  0  0  0
   -1.6839   -9.7990    0.0000 C   0  0  0  0  0  0  0  0  0  0  0  0
   -1.8407  -11.2908    0.0000 N   0  0  0  0  0  0  0  0  0  0  0  0
   -2.7406   -7.4256    0.0000 C   0  0  0  0  0  0  0  0  0  0  0  0
   -2.5838   -5.9338    0.0000 C   0  0  0  0  0  0  0  0  0  0  0  0
   -1.2135   -5.3237    0.0000 C   0  0  0  0  0  0  0  0  0  0  0  0
  1  2  1  0
  2  3  1  0
  2  4  1  0
  4  5  2  0
  5  6  1  0
  6  7  1  0
  7  8  1  0
  8  9  1  0
  9 10  1  0
 10 11  1  0
 11 12  1  0
 12 13  1  0
 13 14  1  0
 14 15  1  0
 15 16  1  0
 10 17  1  0
 17 18  1  0
  6 19  2  0
 19 20  1  0
 20 21  2  0
 21 22  1  0
 22 23  2  0
 22 24  1  0
 24 25  2  0
 25 26  1  0
 26 27  1  0
 27 28  2  0
 28 29  1  0
 29 30  1  0
 30 31  3  0
 29 32  2  0
 32 33  1  0
 33 34  2  0
 25  2  1  0
 34 27  1  0
 21  4  1  0
 34 24  1  0
 18  7  1  0
 16 12  1  0
M  END
>  <Compound_ID>  (268) 
CHEMBL3735988

>  <Molecule Name>  (268) 
nan

>  <Molecular Weight>  (268) 
453.59

>  <AlogP>  (268) 
5.13

>  <Smiles>  (268) 
CC1(C)c2cc(C3CCN(CC4CCOC4)CC3)ccc2C(=O)c2c1[nH]c1cc(C#N)ccc21

>  <Standard Type>  (268) 
IC50

>  <Standard Relation>  (268) 
'='

>  <Standard Units>  (268) 
nM

>  <Standard Value>  (268) 
33.0

>  <Assay ChEMBL ID>  (268) 
CHEMBL3738493

>  <Assay Description>  (268) 
Inhibition of recombinant ALK (unknown origin) using poly (Glu, Tyr)4:1 substrate incubated for 60 mins by ELISA

>  <BAO Format ID>  (268) 
BAO_0000357

>  <BAO Label>  (268) 
single protein format

>  <Assay Organism>  (268) 
Homo sapiens

>  <Target ChEMBL ID>  (268) 
CHEMBL4247

>  <Target Name>  (268) 
ALK tyrosine kinase receptor

>  <Target Organism>  (268) 
Homo sapiens

>  <Target Type>  (268) 
SINGLE PROTEIN

>  <Document ChEMBL ID>  (268) 
CHEMBL3734710

>  <Source Description>  (268) 
Scientific Literature

>  <Document Journal>  (268) 
Eur J Med Chem

>  <Document Year>  (268) 
2015.0

>  <Active>  (268) 
1.0

>  <bits>  (268) 
<rdkit.DataStructs.cDataStructs.ExplicitBitVect object at 0x000002422F18A500>

>  <Group>  (268) 
G2

$$$$

     RDKit          2D

 34 38  0  0  0  0  0  0  0  0999 V2000
   -6.8516   -6.6578    0.0000 C   0  0  0  0  0  0  0  0  0  0  0  0
   -5.6381   -7.5395    0.0000 C   0  0  0  0  0  0  0  0  0  0  0  0
   -4.2677   -6.9294    0.0000 C   0  0  0  0  0  0  0  0  0  0  0  0
   -4.1110   -5.4376    0.0000 C   0  0  0  0  0  0  0  0  0  0  0  0
   -2.7406   -4.8275    0.0000 C   0  0  0  0  0  0  0  0  0  0  0  0
   -1.5271   -5.7092    0.0000 C   0  0  0  0  0  0  0  0  0  0  0  0
   -1.6839   -7.2010    0.0000 C   0  0  0  0  0  0  0  0  0  0  0  0
   -3.0542   -7.8111    0.0000 C   0  0  0  0  0  0  0  0  0  0  0  0
   -3.2110   -9.3029    0.0000 C   0  0  0  0  0  0  0  0  0  0  0  0
   -2.0963  -10.3066    0.0000 C   0  0  0  0  0  0  0  0  0  0  0  0
   -2.7064  -11.6769    0.0000 N   0  0  0  0  0  0  0  0  0  0  0  0
   -4.1982  -11.5201    0.0000 N   0  0  0  0  0  0  0  0  0  0  0  0
   -5.2019  -12.6348    0.0000 C   0  0  0  0  0  0  0  0  0  0  0  0
   -6.6691  -12.3229    0.0000 C   0  0  0  0  0  0  0  0  0  0  0  0
   -7.1326  -10.8963    0.0000 O   0  0  0  0  0  0  0  0  0  0  0  0
   -7.6728  -13.4376    0.0000 C   0  0  0  0  0  0  0  0  0  0  0  0
   -9.1400  -13.1258    0.0000 O   0  0  0  0  0  0  0  0  0  0  0  0
   -4.5101  -10.0529    0.0000 C   0  0  0  0  0  0  0  0  0  0  0  0
   -0.1568   -5.0991    0.0000 C   0  0  0  0  0  0  0  0  0  0  0  0
    1.3396   -4.9944    0.0000 C   0  0  0  0  0  0  0  0  0  0  0  0
    0.2061   -6.5545    0.0000 C   0  0  0  0  0  0  0  0  0  0  0  0
   -0.0000   -3.6073    0.0000 C   0  0  0  0  0  0  0  0  0  0  0  0
    1.2135   -2.7256    0.0000 N   0  0  0  0  0  0  0  0  0  0  0  0
    0.7500   -1.2990    0.0000 C   0  0  0  0  0  0  0  0  0  0  0  0
    1.5000    0.0000    0.0000 C   0  0  0  0  0  0  0  0  0  0  0  0
    0.7500    1.2990    0.0000 C   0  0  0  0  0  0  0  0  0  0  0  0
    1.5000    2.5981    0.0000 C   0  0  0  0  0  0  0  0  0  0  0  0
    2.2500    3.8971    0.0000 N   0  0  0  0  0  0  0  0  0  0  0  0
   -0.7500    1.2990    0.0000 C   0  0  0  0  0  0  0  0  0  0  0  0
   -1.5000    0.0000    0.0000 C   0  0  0  0  0  0  0  0  0  0  0  0
   -0.7500   -1.2990    0.0000 C   0  0  0  0  0  0  0  0  0  0  0  0
   -1.2135   -2.7256    0.0000 C   0  0  0  0  0  0  0  0  0  0  0  0
   -2.5838   -3.3357    0.0000 C   0  0  0  0  0  0  0  0  0  0  0  0
   -3.7974   -2.4540    0.0000 O   0  0  0  0  0  0  0  0  0  0  0  0
  1  2  1  0
  2  3  1  0
  3  4  2  0
  4  5  1  0
  5  6  2  0
  6  7  1  0
  7  8  2  0
  8  9  1  0
  9 10  1  0
 10 11  2  0
 11 12  1  0
 12 13  1  0
 13 14  1  0
 14 15  1  0
 14 16  1  0
 16 17  1  0
 12 18  1  0
  6 19  1  0
 19 20  1  0
 19 21  1  0
 19 22  1  0
 22 23  1  0
 23 24  1  0
 24 25  2  0
 25 26  1  0
 26 27  1  0
 27 28  3  0
 26 29  2  0
 29 30  1  0
 30 31  2  0
 31 32  1  0
 32 33  1  0
 33 34  2  0
  8  3  1  0
 18  9  2  0
 32 22  2  0
 33  5  1  0
 31 24  1  0
M  END
>  <Compound_ID>  (269) 
CHEMBL3735510

>  <Molecule Name>  (269) 
nan

>  <Molecular Weight>  (269) 
454.53

>  <AlogP>  (269) 
3.69

>  <Smiles>  (269) 
CCc1cc2c(cc1-c1cnn(CC(O)CO)c1)C(C)(C)c1[nH]c3cc(C#N)ccc3c1C2=O

>  <Standard Type>  (269) 
IC50

>  <Standard Relation>  (269) 
'='

>  <Standard Units>  (269) 
nM

>  <Standard Value>  (269) 
53.2

>  <Assay ChEMBL ID>  (269) 
CHEMBL3738494

>  <Assay Description>  (269) 
Inhibition of gatekeeper ALK L1196M mutant (unknown origin) using poly (Glu, Tyr)4:1 substrate incubated for 60 mins by ELISA

>  <BAO Format ID>  (269) 
BAO_0000357

>  <BAO Label>  (269) 
single protein format

>  <Assay Organism>  (269) 
Homo sapiens

>  <Target ChEMBL ID>  (269) 
CHEMBL4247

>  <Target Name>  (269) 
ALK tyrosine kinase receptor

>  <Target Organism>  (269) 
Homo sapiens

>  <Target Type>  (269) 
SINGLE PROTEIN

>  <Document ChEMBL ID>  (269) 
CHEMBL3734710

>  <Source Description>  (269) 
Scientific Literature

>  <Document Journal>  (269) 
Eur J Med Chem

>  <Document Year>  (269) 
2015.0

>  <Active>  (269) 
1.0

>  <bits>  (269) 
<rdkit.DataStructs.cDataStructs.ExplicitBitVect object at 0x000002422F189850>

>  <Group>  (269) 
G2

$$$$

     RDKit          2D

 39 42  0  0  0  0  0  0  0  0999 V2000
    3.7500   -1.2990    0.0000 C   0  0  0  0  0  0  0  0  0  0  0  0
    3.0000    0.0000    0.0000 O   0  0  0  0  0  0  0  0  0  0  0  0
    1.5000    0.0000    0.0000 C   0  0  0  0  0  0  0  0  0  0  0  0
    0.7500   -1.2990    0.0000 C   0  0  0  0  0  0  0  0  0  0  0  0
   -0.7500   -1.2990    0.0000 C   0  0  0  0  0  0  0  0  0  0  0  0
   -1.5000   -2.5981    0.0000 N   0  0  0  0  0  0  0  0  0  0  0  0
   -0.8899   -3.9684    0.0000 C   0  0  0  0  0  0  0  0  0  0  0  0
   -2.0046   -4.9721    0.0000 C   0  0  0  0  0  0  0  0  0  0  0  0
   -3.3037   -4.2221    0.0000 C   0  0  0  0  0  0  0  0  0  0  0  0
   -2.9918   -2.7549    0.0000 C   0  0  0  0  0  0  0  0  0  0  0  0
   -3.9955   -1.6402    0.0000 C   0  0  0  0  0  0  0  0  0  0  0  0
   -3.5320   -0.2136    0.0000 O   0  0  0  0  0  0  0  0  0  0  0  0
   -5.4627   -1.9520    0.0000 N   0  0  0  0  0  0  0  0  0  0  0  0
   -6.4664   -0.8373    0.0000 C   0  0  0  0  0  0  0  0  0  0  0  0
   -7.9336   -1.1492    0.0000 C   0  0  0  0  0  0  0  0  0  0  0  0
   -8.9373   -0.0345    0.0000 O   0  0  0  0  0  0  0  0  0  0  0  0
   -1.5000    0.0000    0.0000 C   0  0  0  0  0  0  0  0  0  0  0  0
   -0.7500    1.2990    0.0000 C   0  0  0  0  0  0  0  0  0  0  0  0
    0.7500    1.2990    0.0000 C   0  0  0  0  0  0  0  0  0  0  0  0
    1.5000    2.5981    0.0000 N   0  0  0  0  0  0  0  0  0  0  0  0
    3.0000    2.5981    0.0000 C   0  0  0  0  0  0  0  0  0  0  0  0
    3.7500    1.2990    0.0000 N   0  0  0  0  0  0  0  0  0  0  0  0
    5.2500    1.2990    0.0000 C   0  0  0  0  0  0  0  0  0  0  0  0
    6.0000    2.5981    0.0000 C   0  0  0  0  0  0  0  0  0  0  0  0
    7.5000    2.5981    0.0000 Cl  0  0  0  0  0  0  0  0  0  0  0  0
    5.2500    3.8971    0.0000 C   0  0  0  0  0  0  0  0  0  0  0  0
    6.0000    5.1962    0.0000 N   0  0  0  0  0  0  0  0  0  0  0  0
    5.2500    6.4952    0.0000 C   0  0  0  0  0  0  0  0  0  0  0  0
    6.0000    7.7942    0.0000 C   0  0  0  0  0  0  0  0  0  0  0  0
    5.2500    9.0933    0.0000 C   0  0  0  0  0  0  0  0  0  0  0  0
    3.7500    9.0933    0.0000 C   0  0  0  0  0  0  0  0  0  0  0  0
    3.0000    7.7942    0.0000 C   0  0  0  0  0  0  0  0  0  0  0  0
    3.7500    6.4952    0.0000 C   0  0  0  0  0  0  0  0  0  0  0  0
    3.0000    5.1962    0.0000 N   0  0  0  0  0  0  0  0  0  0  0  0
    1.5000    5.1962    0.0000 S   0  0  0  0  0  0  0  0  0  0  0  0
    0.0000    5.1962    0.0000 C   0  0  0  0  0  0  0  0  0  0  0  0
    1.5000    6.6962    0.0000 O   0  0  0  0  0  0  0  0  0  0  0  0
    1.5000    3.6962    0.0000 O   0  0  0  0  0  0  0  0  0  0  0  0
    3.7500    3.8971    0.0000 N   0  0  0  0  0  0  0  0  0  0  0  0
  1  2  1  0
  2  3  1  0
  3  4  2  0
  4  5  1  0
  5  6  1  0
  6  7  1  0
  7  8  2  0
  8  9  1  0
  9 10  2  0
 10 11  1  0
 11 12  2  0
 11 13  1  0
 13 14  1  0
 14 15  1  0
 15 16  1  0
  5 17  2  0
 17 18  1  0
 18 19  2  0
 19 20  1  0
 20 21  1  0
 21 22  2  0
 22 23  1  0
 23 24  2  0
 24 25  1  0
 24 26  1  0
 26 27  1  0
 27 28  1  0
 28 29  2  0
 29 30  1  0
 30 31  2  0
 31 32  1  0
 32 33  2  0
 33 34  1  0
 34 35  1  0
 35 36  1  0
 35 37  2  0
 35 38  2  0
 26 39  2  0
 19  3  1  0
 39 21  1  0
 10  6  1  0
 33 28  1  0
M  END
>  <Compound_ID>  (270) 
CHEMBL4778125

>  <Molecule Name>  (270) 
nan

>  <Molecular Weight>  (270) 
572.05

>  <AlogP>  (270) 
3.51

>  <Smiles>  (270) 
COc1cc(-n2cccc2C(=O)NCCO)ccc1Nc1ncc(Cl)c(Nc2ccccc2NS(C)(=O)=O)n1

>  <Standard Type>  (270) 
IC50

>  <Standard Relation>  (270) 
'='

>  <Standard Units>  (270) 
nM

>  <Standard Value>  (270) 
3.1

>  <Assay ChEMBL ID>  (270) 
CHEMBL4672520

>  <Assay Description>  (270) 
Inhibition of ALK L1196M (unknown origin) incubated for 1 hr

>  <BAO Format ID>  (270) 
BAO_0000357

>  <BAO Label>  (270) 
single protein format

>  <Assay Organism>  (270) 
Homo sapiens

>  <Target ChEMBL ID>  (270) 
CHEMBL4247

>  <Target Name>  (270) 
ALK tyrosine kinase receptor

>  <Target Organism>  (270) 
Homo sapiens

>  <Target Type>  (270) 
SINGLE PROTEIN

>  <Document ChEMBL ID>  (270) 
CHEMBL4665881

>  <Source Description>  (270) 
Scientific Literature

>  <Document Journal>  (270) 
Bioorg Med Chem

>  <Document Year>  (270) 
2020.0

>  <Active>  (270) 
1.0

>  <bits>  (270) 
<rdkit.DataStructs.cDataStructs.ExplicitBitVect object at 0x000002422F1892A0>

>  <Group>  (270) 
G2

$$$$

     RDKit          2D

 32 36  0  0  0  0  0  0  0  0999 V2000
  -12.3143   -4.9666    0.0000 C   0  0  0  0  0  0  0  0  0  0  0  0
  -11.1996   -5.9703    0.0000 C   0  0  0  0  0  0  0  0  0  0  0  0
  -11.5115   -7.4375    0.0000 C   0  0  0  0  0  0  0  0  0  0  0  0
   -9.7730   -5.5068    0.0000 N   0  0  0  0  0  0  0  0  0  0  0  0
   -9.4612   -4.0396    0.0000 C   0  0  0  0  0  0  0  0  0  0  0  0
   -8.0346   -3.5760    0.0000 C   0  0  0  0  0  0  0  0  0  0  0  0
   -6.9199   -4.5797    0.0000 N   0  0  0  0  0  0  0  0  0  0  0  0
   -5.4933   -4.1162    0.0000 C   0  0  0  0  0  0  0  0  0  0  0  0
   -4.3786   -5.1199    0.0000 C   0  0  0  0  0  0  0  0  0  0  0  0
   -2.9520   -4.6564    0.0000 C   0  0  0  0  0  0  0  0  0  0  0  0
   -2.6401   -3.1891    0.0000 C   0  0  0  0  0  0  0  0  0  0  0  0
   -1.2135   -2.7256    0.0000 C   0  0  0  0  0  0  0  0  0  0  0  0
   -0.0000   -3.6073    0.0000 N   0  0  0  0  0  0  0  0  0  0  0  0
    1.2135   -2.7256    0.0000 N   0  0  0  0  0  0  0  0  0  0  0  0
    0.7500   -1.2990    0.0000 C   0  0  0  0  0  0  0  0  0  0  0  0
    1.5000    0.0000    0.0000 N   0  0  0  0  0  0  0  0  0  0  0  0
    0.7500    1.2990    0.0000 C   0  0  0  0  0  0  0  0  0  0  0  0
    1.5000    2.5981    0.0000 C   0  0  0  0  0  0  0  0  0  0  0  0
    3.0000    2.5981    0.0000 C   0  0  0  0  0  0  0  0  0  0  0  0
    3.7500    3.8971    0.0000 C   0  0  0  0  0  0  0  0  0  0  0  0
    3.0000    5.1962    0.0000 C   0  0  0  0  0  0  0  0  0  0  0  0
    3.7500    6.4952    0.0000 O   0  0  0  0  0  0  0  0  0  0  0  0
    1.5000    5.1962    0.0000 C   0  0  0  0  0  0  0  0  0  0  0  0
    0.7500    6.4952    0.0000 F   0  0  0  0  0  0  0  0  0  0  0  0
    0.7500    3.8971    0.0000 C   0  0  0  0  0  0  0  0  0  0  0  0
   -0.7500    1.2990    0.0000 C   0  0  0  0  0  0  0  0  0  0  0  0
   -1.5000    0.0000    0.0000 C   0  0  0  0  0  0  0  0  0  0  0  0
   -0.7500   -1.2990    0.0000 C   0  0  0  0  0  0  0  0  0  0  0  0
   -3.7548   -2.1855    0.0000 C   0  0  0  0  0  0  0  0  0  0  0  0
   -5.1814   -2.6490    0.0000 C   0  0  0  0  0  0  0  0  0  0  0  0
   -7.2317   -6.0469    0.0000 C   0  0  0  0  0  0  0  0  0  0  0  0
   -8.6583   -6.5105    0.0000 C   0  0  0  0  0  0  0  0  0  0  0  0
  1  2  1  0
  2  3  1  0
  2  4  1  0
  4  5  1  0
  5  6  1  0
  6  7  1  0
  7  8  1  0
  8  9  2  0
  9 10  1  0
 10 11  2  0
 11 12  1  0
 12 13  2  0
 13 14  1  0
 14 15  1  0
 15 16  2  0
 16 17  1  0
 17 18  1  0
 18 19  2  0
 19 20  1  0
 20 21  2  0
 21 22  1  0
 21 23  1  0
 23 24  1  0
 23 25  2  0
 17 26  2  0
 26 27  1  0
 27 28  2  0
 11 29  1  0
 29 30  2  0
  7 31  1  0
 31 32  1  0
 32  4  1  0
 30  8  1  0
 28 12  1  0
 28 15  1  0
 25 18  1  0
M  END
>  <Compound_ID>  (271) 
CHEMBL4577227

>  <Molecule Name>  (271) 
nan

>  <Molecular Weight>  (271) 
431.52

>  <AlogP>  (271) 
4.67

>  <Smiles>  (271) 
CC(C)N1CCN(c2ccc(-c3n[nH]c4nc(-c5ccc(O)c(F)c5)ccc34)cc2)CC1

>  <Standard Type>  (271) 
IC50

>  <Standard Relation>  (271) 
'='

>  <Standard Units>  (271) 
nM

>  <Standard Value>  (271) 
1.58

>  <Assay ChEMBL ID>  (271) 
CHEMBL4370936

>  <Assay Description>  (271) 
Inhibition of recombinant ALK (unknown origin) using peptide substrate measured after 1 hr by LanthaScreen assay

>  <BAO Format ID>  (271) 
BAO_0000357

>  <BAO Label>  (271) 
single protein format

>  <Assay Organism>  (271) 
Homo sapiens

>  <Target ChEMBL ID>  (271) 
CHEMBL4247

>  <Target Name>  (271) 
ALK tyrosine kinase receptor

>  <Target Organism>  (271) 
Homo sapiens

>  <Target Type>  (271) 
SINGLE PROTEIN

>  <Document ChEMBL ID>  (271) 
CHEMBL4368941

>  <Source Description>  (271) 
Scientific Literature

>  <Document Journal>  (271) 
Bioorg Med Chem Lett

>  <Document Year>  (271) 
2019.0

>  <Active>  (271) 
1.0

>  <bits>  (271) 
<rdkit.DataStructs.cDataStructs.ExplicitBitVect object at 0x000002422F1880B0>

>  <Group>  (271) 
G2

$$$$

     RDKit          2D

 36 39  0  0  0  0  0  0  0  0999 V2000
   -1.7110    5.9853    0.0000 C   0  0  0  0  0  0  0  0  0  0  0  0
   -0.2487    5.6515    0.0000 O   0  0  0  0  0  0  0  0  0  0  0  0
    0.1935    4.2182    0.0000 C   0  0  0  0  0  0  0  0  0  0  0  0
   -0.8268    3.1186    0.0000 C   0  0  0  0  0  0  0  0  0  0  0  0
   -0.3846    1.6852    0.0000 C   0  0  0  0  0  0  0  0  0  0  0  0
    1.0777    1.3515    0.0000 C   0  0  0  0  0  0  0  0  0  0  0  0
    2.0980    2.4510    0.0000 C   0  0  0  0  0  0  0  0  0  0  0  0
    1.6559    3.8844    0.0000 C   0  0  0  0  0  0  0  0  0  0  0  0
    2.6761    4.9840    0.0000 N   0  0  0  0  0  0  0  0  0  0  0  0
    4.1385    4.6502    0.0000 C   0  0  0  0  0  0  0  0  0  0  0  0
    4.5807    3.2168    0.0000 N   0  0  0  0  0  0  0  0  0  0  0  0
    6.0430    2.8830    0.0000 C   0  0  0  0  0  0  0  0  0  0  0  0
    7.0633    3.9826    0.0000 C   0  0  0  0  0  0  0  0  0  0  0  0
    8.5257    3.6488    0.0000 Cl  0  0  0  0  0  0  0  0  0  0  0  0
    6.6212    5.4160    0.0000 C   0  0  0  0  0  0  0  0  0  0  0  0
    7.6414    6.5156    0.0000 N   0  0  0  0  0  0  0  0  0  0  0  0
    7.1993    7.9489    0.0000 C   0  0  0  0  0  0  0  0  0  0  0  0
    8.2196    9.0485    0.0000 C   0  0  0  0  0  0  0  0  0  0  0  0
    7.7774   10.4819    0.0000 C   0  0  0  0  0  0  0  0  0  0  0  0
    6.3150   10.8156    0.0000 C   0  0  0  0  0  0  0  0  0  0  0  0
    5.2948    9.7161    0.0000 C   0  0  0  0  0  0  0  0  0  0  0  0
    5.7369    8.2827    0.0000 C   0  0  0  0  0  0  0  0  0  0  0  0
    4.7167    7.1831    0.0000 O   0  0  0  0  0  0  0  0  0  0  0  0
    3.2543    7.5169    0.0000 C   0  0  0  0  0  0  0  0  0  0  0  0
    5.1588    5.7498    0.0000 N   0  0  0  0  0  0  0  0  0  0  0  0
    1.7286    0.0000    0.0000 C   0  0  0  0  0  0  0  0  0  0  0  0
    1.0777   -1.3515    0.0000 C   0  0  0  0  0  0  0  0  0  0  0  0
   -0.3846   -1.6852    0.0000 N   0  0  0  0  0  0  0  0  0  0  0  0
   -0.7184   -3.1476    0.0000 C   0  0  0  0  0  0  0  0  0  0  0  0
   -2.1518   -3.5898    0.0000 C   0  0  0  0  0  0  0  0  0  0  0  0
   -3.2514   -2.5695    0.0000 O   0  0  0  0  0  0  0  0  0  0  0  0
   -2.4856   -5.0522    0.0000 N   0  0  0  0  0  0  0  0  0  0  0  0
   -3.9189   -5.4943    0.0000 C   0  0  0  0  0  0  0  0  0  0  0  0
   -1.3860   -6.0724    0.0000 C   0  0  0  0  0  0  0  0  0  0  0  0
   -1.5574   -0.7500    0.0000 C   0  0  0  0  0  0  0  0  0  0  0  0
   -1.5574    0.7500    0.0000 C   0  0  0  0  0  0  0  0  0  0  0  0
  1  2  1  0
  2  3  1  0
  3  4  2  0
  4  5  1  0
  5  6  2  0
  6  7  1  0
  7  8  2  0
  8  9  1  0
  9 10  1  0
 10 11  2  0
 11 12  1  0
 12 13  2  0
 13 14  1  0
 13 15  1  0
 15 16  1  0
 16 17  1  0
 17 18  2  0
 18 19  1  0
 19 20  2  0
 20 21  1  0
 21 22  2  0
 22 23  1  0
 23 24  1  0
 15 25  2  0
  6 26  1  0
 26 27  1  0
 27 28  1  0
 28 29  1  0
 29 30  1  0
 30 31  2  0
 30 32  1  0
 32 33  1  0
 32 34  1  0
 28 35  1  0
 35 36  1  0
  8  3  1  0
 25 10  1  0
 36  5  1  0
 22 17  1  0
M  END
>  <Compound_ID>  (272) 
CHEMBL1642260

>  <Molecule Name>  (272) 
nan

>  <Molecular Weight>  (272) 
511.03

>  <AlogP>  (272) 
4.12

>  <Smiles>  (272) 
COc1cc2c(cc1Nc1ncc(Cl)c(Nc3ccccc3OC)n1)CCN(CC(=O)N(C)C)CC2

>  <Standard Type>  (272) 
IC50

>  <Standard Relation>  (272) 
'='

>  <Standard Units>  (272) 
nM

>  <Standard Value>  (272) 
4.0

>  <Assay ChEMBL ID>  (272) 
CHEMBL1648480

>  <Assay Description>  (272) 
Inhibition of ALK

>  <BAO Format ID>  (272) 
BAO_0000357

>  <BAO Label>  (272) 
single protein format

>  <Assay Organism>  (272) 
None

>  <Target ChEMBL ID>  (272) 
CHEMBL4247

>  <Target Name>  (272) 
ALK tyrosine kinase receptor

>  <Target Organism>  (272) 
Homo sapiens

>  <Target Type>  (272) 
SINGLE PROTEIN

>  <Document ChEMBL ID>  (272) 
CHEMBL1641404

>  <Source Description>  (272) 
Scientific Literature

>  <Document Journal>  (272) 
Bioorg Med Chem Lett

>  <Document Year>  (272) 
2011.0

>  <Active>  (272) 
1.0

>  <bits>  (272) 
<rdkit.DataStructs.cDataStructs.ExplicitBitVect object at 0x000002422F18A880>

>  <Group>  (272) 
G2

$$$$

     RDKit          2D

 36 40  0  0  0  0  0  0  0  0999 V2000
   -4.3764    3.7611    0.0000 C   0  0  0  0  0  0  0  0  0  0  0  0
   -2.9499    4.2246    0.0000 O   0  0  0  0  0  0  0  0  0  0  0  0
   -1.8351    3.2209    0.0000 C   0  0  0  0  0  0  0  0  0  0  0  0
   -2.1470    1.7537    0.0000 C   0  0  0  0  0  0  0  0  0  0  0  0
   -1.0323    0.7500    0.0000 C   0  0  0  0  0  0  0  0  0  0  0  0
    0.3943    1.2135    0.0000 C   0  0  0  0  0  0  0  0  0  0  0  0
    0.7062    2.6807    0.0000 C   0  0  0  0  0  0  0  0  0  0  0  0
   -0.4086    3.6844    0.0000 C   0  0  0  0  0  0  0  0  0  0  0  0
   -0.0967    5.1517    0.0000 N   0  0  0  0  0  0  0  0  0  0  0  0
    1.3299    5.6152    0.0000 C   0  0  0  0  0  0  0  0  0  0  0  0
    1.6418    7.0824    0.0000 N   0  0  0  0  0  0  0  0  0  0  0  0
    3.0684    7.5459    0.0000 C   0  0  0  0  0  0  0  0  0  0  0  0
    3.3802    9.0132    0.0000 N   0  0  0  0  0  0  0  0  0  0  0  0
    2.2655   10.0169    0.0000 C   0  0  0  0  0  0  0  0  0  0  0  0
    0.7983    9.7050    0.0000 C   0  0  0  0  0  0  0  0  0  0  0  0
    0.0483   11.0040    0.0000 C   0  0  0  0  0  0  0  0  0  0  0  0
    1.0520   12.1187    0.0000 S   0  0  0  0  0  0  0  0  0  0  0  0
    2.4223   11.5086    0.0000 C   0  0  0  0  0  0  0  0  0  0  0  0
    3.7213   12.2586    0.0000 C   0  0  0  0  0  0  0  0  0  0  0  0
    5.0204   11.5086    0.0000 N   0  0  0  0  0  0  0  0  0  0  0  0
    3.7213   13.7586    0.0000 O   0  0  0  0  0  0  0  0  0  0  0  0
    4.1831    6.5422    0.0000 C   0  0  0  0  0  0  0  0  0  0  0  0
    5.6749    6.6990    0.0000 C   0  0  0  0  0  0  0  0  0  0  0  0
    6.2850    5.3287    0.0000 C   0  0  0  0  0  0  0  0  0  0  0  0
    5.1702    4.3250    0.0000 N   0  0  0  0  0  0  0  0  0  0  0  0
    3.8712    5.0750    0.0000 C   0  0  0  0  0  0  0  0  0  0  0  0
    2.4446    4.6115    0.0000 N   0  0  0  0  0  0  0  0  0  0  0  0
    1.2760   -0.0000    0.0000 N   0  0  0  0  0  0  0  0  0  0  0  0
    2.7760    0.0000    0.0000 C   0  0  0  0  0  0  0  0  0  0  0  0
    3.5260    1.2990    0.0000 O   0  0  0  0  0  0  0  0  0  0  0  0
    3.5260   -1.2990    0.0000 C   0  0  0  0  0  0  0  0  0  0  0  0
    5.0260   -1.2990    0.0000 N   0  0  0  0  0  0  0  0  0  0  0  0
    5.7760   -2.5981    0.0000 C   0  0  0  0  0  0  0  0  0  0  0  0
    5.7760    0.0000    0.0000 C   0  0  0  0  0  0  0  0  0  0  0  0
    0.3943   -1.2135    0.0000 C   0  0  0  0  0  0  0  0  0  0  0  0
   -1.0323   -0.7500    0.0000 C   0  0  0  0  0  0  0  0  0  0  0  0
  1  2  1  0
  2  3  1  0
  3  4  2  0
  4  5  1  0
  5  6  2  0
  6  7  1  0
  7  8  2  0
  8  9  1  0
  9 10  1  0
 10 11  2  0
 11 12  1  0
 12 13  1  0
 13 14  1  0
 14 15  1  0
 15 16  2  0
 16 17  1  0
 17 18  1  0
 18 19  1  0
 19 20  1  0
 19 21  2  0
 12 22  2  0
 22 23  1  0
 23 24  2  0
 24 25  1  0
 25 26  1  0
 26 27  2  0
  6 28  1  0
 28 29  1  0
 29 30  2  0
 29 31  1  0
 31 32  1  0
 32 33  1  0
 32 34  1  0
 28 35  1  0
 35 36  1  0
  8  3  1  0
 27 10  1  0
 36  5  1  0
 18 14  2  0
 26 22  1  0
M  END
>  <Compound_ID>  (273) 
CHEMBL514873

>  <Molecule Name>  (273) 
nan

>  <Molecular Weight>  (273) 
506.59

>  <AlogP>  (273) 
3.06

>  <Smiles>  (273) 
COc1cc2c(cc1Nc1nc(Nc3ccsc3C(N)=O)c3cc[nH]c3n1)N(C(=O)CN(C)C)CC2

>  <Standard Type>  (273) 
IC50

>  <Standard Relation>  (273) 
'='

>  <Standard Units>  (273) 
nM

>  <Standard Value>  (273) 
0.4

>  <Assay ChEMBL ID>  (273) 
CHEMBL1025725

>  <Assay Description>  (273) 
Inhibition of ALK

>  <BAO Format ID>  (273) 
BAO_0000357

>  <BAO Label>  (273) 
single protein format

>  <Assay Organism>  (273) 
None

>  <Target ChEMBL ID>  (273) 
CHEMBL4247

>  <Target Name>  (273) 
ALK tyrosine kinase receptor

>  <Target Organism>  (273) 
Homo sapiens

>  <Target Type>  (273) 
SINGLE PROTEIN

>  <Document ChEMBL ID>  (273) 
CHEMBL1154545

>  <Source Description>  (273) 
Scientific Literature

>  <Document Journal>  (273) 
Bioorg Med Chem Lett

>  <Document Year>  (273) 
2009.0

>  <Active>  (273) 
1.0

>  <bits>  (273) 
<rdkit.DataStructs.cDataStructs.ExplicitBitVect object at 0x000002422F189E00>

>  <Group>  (273) 
G2

$$$$

     RDKit          2D

 48 52  0  0  0  0  0  0  0  0999 V2000
    3.7500   -1.2990    0.0000 C   0  0  0  0  0  0  0  0  0  0  0  0
    3.0000    0.0000    0.0000 O   0  0  0  0  0  0  0  0  0  0  0  0
    1.5000    0.0000    0.0000 C   0  0  0  0  0  0  0  0  0  0  0  0
    0.7500   -1.2990    0.0000 C   0  0  0  0  0  0  0  0  0  0  0  0
   -0.7500   -1.2990    0.0000 C   0  0  0  0  0  0  0  0  0  0  0  0
   -1.5000   -2.5981    0.0000 N   0  0  0  0  0  0  0  0  0  0  0  0
   -3.0000   -2.5981    0.0000 C   0  0  0  0  0  0  0  0  0  0  0  0
   -3.7500   -3.8971    0.0000 C   0  0  0  0  0  0  0  0  0  0  0  0
   -3.0000   -5.1962    0.0000 N   0  0  0  0  0  0  0  0  0  0  0  0
   -3.7500   -6.4952    0.0000 C   0  0  0  0  0  0  0  0  0  0  0  0
   -3.0000   -7.7942    0.0000 O   0  0  0  0  0  0  0  0  0  0  0  0
   -5.2500   -6.4952    0.0000 C   0  0  0  0  0  0  0  0  0  0  0  0
   -6.0000   -7.7942    0.0000 O   0  0  0  0  0  0  0  0  0  0  0  0
   -1.5000   -5.1962    0.0000 C   0  0  0  0  0  0  0  0  0  0  0  0
   -0.7500   -3.8971    0.0000 C   0  0  0  0  0  0  0  0  0  0  0  0
   -1.5000    0.0000    0.0000 C   0  0  0  0  0  0  0  0  0  0  0  0
   -0.7500    1.2990    0.0000 C   0  0  0  0  0  0  0  0  0  0  0  0
    0.7500    1.2990    0.0000 C   0  0  0  0  0  0  0  0  0  0  0  0
    1.5000    2.5981    0.0000 N   0  0  0  0  0  0  0  0  0  0  0  0
    3.0000    2.5981    0.0000 C   0  0  0  0  0  0  0  0  0  0  0  0
    3.7500    1.2990    0.0000 N   0  0  0  0  0  0  0  0  0  0  0  0
    5.2500    1.2990    0.0000 C   0  0  0  0  0  0  0  0  0  0  0  0
    6.0000    2.5981    0.0000 C   0  0  0  0  0  0  0  0  0  0  0  0
    7.5000    2.5981    0.0000 C   0  0  0  0  0  0  0  0  0  0  0  0
    9.0000    2.5981    0.0000 F   0  0  0  0  0  0  0  0  0  0  0  0
    7.5000    1.0981    0.0000 F   0  0  0  0  0  0  0  0  0  0  0  0
    7.5000    4.0981    0.0000 F   0  0  0  0  0  0  0  0  0  0  0  0
    5.2500    3.8971    0.0000 C   0  0  0  0  0  0  0  0  0  0  0  0
    6.0000    5.1962    0.0000 N   0  0  0  0  0  0  0  0  0  0  0  0
    5.2500    6.4952    0.0000 C   0  0  0  0  0  0  0  0  0  0  0  0
    6.0000    7.7942    0.0000 C   0  0  0  0  0  0  0  0  0  0  0  0
    5.2500    9.0933    0.0000 C   0  0  0  0  0  0  0  0  0  0  0  0
    3.7500    9.0933    0.0000 C   0  0  0  0  0  0  0  0  0  0  0  0
    3.0000   10.3923    0.0000 N   0  0  0  0  0  0  0  0  0  0  0  0
    3.7500   11.6913    0.0000 C   0  0  0  0  0  0  0  0  0  0  0  0
    3.0000   12.9904    0.0000 C   0  0  0  0  0  0  0  0  0  0  0  0
    1.5000   12.9904    0.0000 N   0  0  0  0  0  0  0  0  0  0  0  0
    0.7500   14.2894    0.0000 C   0  0  0  0  0  0  0  0  0  0  0  0
   -0.7500   14.2894    0.0000 O   0  0  0  0  0  0  0  0  0  0  0  0
    1.5000   15.5885    0.0000 C   0  0  0  0  0  0  0  0  0  0  0  0
    0.7500   16.8875    0.0000 O   0  0  0  0  0  0  0  0  0  0  0  0
    0.7500   11.6913    0.0000 C   0  0  0  0  0  0  0  0  0  0  0  0
    1.5000   10.3923    0.0000 C   0  0  0  0  0  0  0  0  0  0  0  0
    3.0000    7.7942    0.0000 C   0  0  0  0  0  0  0  0  0  0  0  0
    3.7500    6.4952    0.0000 C   0  0  0  0  0  0  0  0  0  0  0  0
    3.0000    5.1962    0.0000 O   0  0  0  0  0  0  0  0  0  0  0  0
    1.5000    5.1962    0.0000 C   0  0  0  0  0  0  0  0  0  0  0  0
    3.7500    3.8971    0.0000 N   0  0  0  0  0  0  0  0  0  0  0  0
  1  2  1  0
  2  3  1  0
  3  4  2  0
  4  5  1  0
  5  6  1  0
  6  7  1  0
  7  8  1  0
  8  9  1  0
  9 10  1  0
 10 11  2  0
 10 12  1  0
 12 13  1  0
  9 14  1  0
 14 15  1  0
  5 16  2  0
 16 17  1  0
 17 18  2  0
 18 19  1  0
 19 20  1  0
 20 21  2  0
 21 22  1  0
 22 23  2  0
 23 24  1  0
 24 25  1  0
 24 26  1  0
 24 27  1  0
 23 28  1  0
 28 29  1  0
 29 30  1  0
 30 31  2  0
 31 32  1  0
 32 33  2  0
 33 34  1  0
 34 35  1  0
 35 36  1  0
 36 37  1  0
 37 38  1  0
 38 39  2  0
 38 40  1  0
 40 41  1  0
 37 42  1  0
 42 43  1  0
 33 44  1  0
 44 45  2  0
 45 46  1  0
 46 47  1  0
 28 48  2  0
 18  3  1  0
 48 20  1  0
 15  6  1  0
 45 30  1  0
 43 34  1  0
M  END
>  <Compound_ID>  (274) 
CHEMBL3974726

>  <Molecule Name>  (274) 
nan

>  <Molecular Weight>  (274) 
674.68

>  <AlogP>  (274) 
2.28

>  <Smiles>  (274) 
COc1cc(N2CCN(C(=O)CO)CC2)ccc1Nc1ncc(C(F)(F)F)c(Nc2ccc(N3CCN(C(=O)CO)CC3)cc2OC)n1

>  <Standard Type>  (274) 
IC50

>  <Standard Relation>  (274) 
'='

>  <Standard Units>  (274) 
nM

>  <Standard Value>  (274) 
5.0

>  <Assay ChEMBL ID>  (274) 
CHEMBL3887133

>  <Assay Description>  (274) 
Homogeneous Time-resolved fluorescence (HTRF) Assay: In order to measure the inhibitory activity against ALK, a Grainer 96-well round type bottom plate was added with the compounds (2 μl) prepared in Examples 1 to 89, and mixed with ALK enzyme (1 ul) and a peptide substrate (2 μl) with biotin attached thereto for 15 minutes and cultured thereafter. Here, ATP solution (5 μl) was added thereto and kinase reaction was performed at room temperature for 30 minutes. XL 665 (5 μl), to which Streptavidin dissolved in ethylenediaminetetraacetic acid solution was attached, anti-phosphotyrosine antibody (5 μl), to which europium (Eu3+) was attached, were added to a reaction solution to stop the reaction, cultured for 1 hour, and analyzed using Homogeneous Time-resolved fluorescence (HTRF, Cisbio). The result was read by a Wallac Envision 2103 device at the wavelength range of 615/665 nm.

>  <BAO Format ID>  (274) 
BAO_0000357

>  <BAO Label>  (274) 
single protein format

>  <Assay Organism>  (274) 
None

>  <Target ChEMBL ID>  (274) 
CHEMBL4247

>  <Target Name>  (274) 
ALK tyrosine kinase receptor

>  <Target Organism>  (274) 
Homo sapiens

>  <Target Type>  (274) 
SINGLE PROTEIN

>  <Document ChEMBL ID>  (274) 
CHEMBL3886178

>  <Source Description>  (274) 
BindingDB Database

>  <Document Journal>  (274) 
nan

>  <Document Year>  (274) 
2015.0

>  <Active>  (274) 
1.0

>  <bits>  (274) 
<rdkit.DataStructs.cDataStructs.ExplicitBitVect object at 0x000002422F1898C0>

>  <Group>  (274) 
G2

$$$$

     RDKit          2D

 33 37  0  0  0  0  0  0  0  0999 V2000
    2.6491   -3.5623    0.0000 C   0  0  0  0  0  0  0  0  0  0  0  0
    1.5000   -2.5981    0.0000 C   0  0  0  0  0  0  0  0  0  0  0  0
    2.6491   -1.6339    0.0000 C   0  0  0  0  0  0  0  0  0  0  0  0
    0.7500   -1.2990    0.0000 C   0  0  0  0  0  0  0  0  0  0  0  0
    1.5000    0.0000    0.0000 C   0  0  0  0  0  0  0  0  0  0  0  0
    0.7500    1.2990    0.0000 C   0  0  0  0  0  0  0  0  0  0  0  0
    1.5000    2.5981    0.0000 O   0  0  0  0  0  0  0  0  0  0  0  0
    3.0000    2.5981    0.0000 C   0  0  0  0  0  0  0  0  0  0  0  0
    3.7500    3.8971    0.0000 C   0  0  0  0  0  0  0  0  0  0  0  0
    5.2500    3.8971    0.0000 N   0  0  0  0  0  0  0  0  0  0  0  0
    6.0000    2.5981    0.0000 C   0  0  0  0  0  0  0  0  0  0  0  0
    7.5000    2.5981    0.0000 C   0  0  0  0  0  0  0  0  0  0  0  0
    8.2500    3.8971    0.0000 S   0  0  0  0  0  0  0  0  0  0  0  0
    9.3991    4.8613    0.0000 O   0  0  0  0  0  0  0  0  0  0  0  0
    9.3991    2.9329    0.0000 O   0  0  0  0  0  0  0  0  0  0  0  0
    7.5000    5.1962    0.0000 C   0  0  0  0  0  0  0  0  0  0  0  0
    6.0000    5.1962    0.0000 C   0  0  0  0  0  0  0  0  0  0  0  0
   -0.7500    1.2990    0.0000 C   0  0  0  0  0  0  0  0  0  0  0  0
   -1.5000    0.0000    0.0000 C   0  0  0  0  0  0  0  0  0  0  0  0
   -0.7500   -1.2990    0.0000 C   0  0  0  0  0  0  0  0  0  0  0  0
   -1.5000   -2.5981    0.0000 C   0  0  0  0  0  0  0  0  0  0  0  0
   -3.0000   -2.5981    0.0000 O   0  0  0  0  0  0  0  0  0  0  0  0
   -0.7500   -3.8971    0.0000 C   0  0  0  0  0  0  0  0  0  0  0  0
    0.7500   -3.8971    0.0000 C   0  0  0  0  0  0  0  0  0  0  0  0
    1.2135   -5.3237    0.0000 N   0  0  0  0  0  0  0  0  0  0  0  0
    0.0000   -6.2054    0.0000 C   0  0  0  0  0  0  0  0  0  0  0  0
   -0.1568   -7.6972    0.0000 C   0  0  0  0  0  0  0  0  0  0  0  0
   -1.5271   -8.3073    0.0000 C   0  0  0  0  0  0  0  0  0  0  0  0
   -1.6839   -9.7990    0.0000 C   0  0  0  0  0  0  0  0  0  0  0  0
   -1.8407  -11.2908    0.0000 N   0  0  0  0  0  0  0  0  0  0  0  0
   -2.7406   -7.4256    0.0000 C   0  0  0  0  0  0  0  0  0  0  0  0
   -2.5838   -5.9338    0.0000 C   0  0  0  0  0  0  0  0  0  0  0  0
   -1.2135   -5.3237    0.0000 C   0  0  0  0  0  0  0  0  0  0  0  0
  1  2  1  0
  2  3  1  0
  2  4  1  0
  4  5  2  0
  5  6  1  0
  6  7  1  0
  7  8  1  0
  8  9  1  0
  9 10  1  0
 10 11  1  0
 11 12  1  0
 12 13  1  0
 13 14  2  0
 13 15  2  0
 13 16  1  0
 16 17  1  0
  6 18  2  0
 18 19  1  0
 19 20  2  0
 20 21  1  0
 21 22  2  0
 21 23  1  0
 23 24  2  0
 24 25  1  0
 25 26  1  0
 26 27  2  0
 27 28  1  0
 28 29  1  0
 29 30  3  0
 28 31  2  0
 31 32  1  0
 32 33  2  0
 24  2  1  0
 33 26  1  0
 20  4  1  0
 33 23  1  0
 17 10  1  0
M  END
>  <Compound_ID>  (275) 
CHEMBL1779193

>  <Molecule Name>  (275) 
nan

>  <Molecular Weight>  (275) 
463.56

>  <AlogP>  (275) 
3.02

>  <Smiles>  (275) 
CC1(C)c2cc(OCCN3CCS(=O)(=O)CC3)ccc2C(=O)c2c1[nH]c1cc(C#N)ccc21

>  <Standard Type>  (275) 
IC50

>  <Standard Relation>  (275) 
'='

>  <Standard Units>  (275) 
nM

>  <Standard Value>  (275) 
3.7

>  <Assay ChEMBL ID>  (275) 
CHEMBL1781770

>  <Assay Description>  (275) 
Inhibition of ALK assessed as biotin-EGPWLEEEEEAYGWMDF peptide phosphorylation by TR-FRET assay

>  <BAO Format ID>  (275) 
BAO_0000357

>  <BAO Label>  (275) 
single protein format

>  <Assay Organism>  (275) 
None

>  <Target ChEMBL ID>  (275) 
CHEMBL4247

>  <Target Name>  (275) 
ALK tyrosine kinase receptor

>  <Target Organism>  (275) 
Homo sapiens

>  <Target Type>  (275) 
SINGLE PROTEIN

>  <Document ChEMBL ID>  (275) 
CHEMBL1777813

>  <Source Description>  (275) 
Scientific Literature

>  <Document Journal>  (275) 
Bioorg Med Chem Lett

>  <Document Year>  (275) 
2011.0

>  <Active>  (275) 
1.0

>  <bits>  (275) 
<rdkit.DataStructs.cDataStructs.ExplicitBitVect object at 0x000002422F1889E0>

>  <Group>  (275) 
G2

$$$$

     RDKit          2D

 28 32  0  0  0  0  0  0  0  0999 V2000
    2.6491   -3.5623    0.0000 C   0  0  0  0  0  0  0  0  0  0  0  0
    1.5000   -2.5981    0.0000 C   0  0  0  0  0  0  0  0  0  0  0  0
    2.6491   -1.6339    0.0000 C   0  0  0  0  0  0  0  0  0  0  0  0
    0.7500   -1.2990    0.0000 C   0  0  0  0  0  0  0  0  0  0  0  0
    1.5000    0.0000    0.0000 C   0  0  0  0  0  0  0  0  0  0  0  0
    0.7500    1.2990    0.0000 C   0  0  0  0  0  0  0  0  0  0  0  0
    1.5000    2.5981    0.0000 N   0  0  0  0  0  0  0  0  0  0  0  0
    3.0000    2.5981    0.0000 C   0  0  0  0  0  0  0  0  0  0  0  0
    3.7500    3.8971    0.0000 C   0  0  0  0  0  0  0  0  0  0  0  0
    3.0000    5.1962    0.0000 O   0  0  0  0  0  0  0  0  0  0  0  0
    1.5000    5.1962    0.0000 C   0  0  0  0  0  0  0  0  0  0  0  0
    0.7500    3.8971    0.0000 C   0  0  0  0  0  0  0  0  0  0  0  0
   -0.7500    1.2990    0.0000 C   0  0  0  0  0  0  0  0  0  0  0  0
   -1.5000    0.0000    0.0000 C   0  0  0  0  0  0  0  0  0  0  0  0
   -0.7500   -1.2990    0.0000 C   0  0  0  0  0  0  0  0  0  0  0  0
   -1.5000   -2.5981    0.0000 C   0  0  0  0  0  0  0  0  0  0  0  0
   -3.0000   -2.5981    0.0000 O   0  0  0  0  0  0  0  0  0  0  0  0
   -0.7500   -3.8971    0.0000 C   0  0  0  0  0  0  0  0  0  0  0  0
    0.7500   -3.8971    0.0000 C   0  0  0  0  0  0  0  0  0  0  0  0
    1.2135   -5.3237    0.0000 N   0  0  0  0  0  0  0  0  0  0  0  0
    0.0000   -6.2054    0.0000 C   0  0  0  0  0  0  0  0  0  0  0  0
   -0.1568   -7.6972    0.0000 C   0  0  0  0  0  0  0  0  0  0  0  0
   -1.5271   -8.3073    0.0000 C   0  0  0  0  0  0  0  0  0  0  0  0
   -1.6839   -9.7990    0.0000 C   0  0  0  0  0  0  0  0  0  0  0  0
   -1.8407  -11.2908    0.0000 N   0  0  0  0  0  0  0  0  0  0  0  0
   -2.7406   -7.4256    0.0000 C   0  0  0  0  0  0  0  0  0  0  0  0
   -2.5838   -5.9338    0.0000 C   0  0  0  0  0  0  0  0  0  0  0  0
   -1.2135   -5.3237    0.0000 C   0  0  0  0  0  0  0  0  0  0  0  0
  1  2  1  0
  2  3  1  0
  2  4  1  0
  4  5  2  0
  5  6  1  0
  6  7  1  0
  7  8  1  0
  8  9  1  0
  9 10  1  0
 10 11  1  0
 11 12  1  0
  6 13  2  0
 13 14  1  0
 14 15  2  0
 15 16  1  0
 16 17  2  0
 16 18  1  0
 18 19  2  0
 19 20  1  0
 20 21  1  0
 21 22  2  0
 22 23  1  0
 23 24  1  0
 24 25  3  0
 23 26  2  0
 26 27  1  0
 27 28  2  0
 19  2  1  0
 28 21  1  0
 15  4  1  0
 28 18  1  0
 12  7  1  0
M  END
>  <Compound_ID>  (276) 
CHEMBL1779197

>  <Molecule Name>  (276) 
nan

>  <Molecular Weight>  (276) 
371.44

>  <AlogP>  (276) 
3.75

>  <Smiles>  (276) 
CC1(C)c2cc(N3CCOCC3)ccc2C(=O)c2c1[nH]c1cc(C#N)ccc21

>  <Standard Type>  (276) 
IC50

>  <Standard Relation>  (276) 
'='

>  <Standard Units>  (276) 
nM

>  <Standard Value>  (276) 
18.5

>  <Assay ChEMBL ID>  (276) 
CHEMBL1781770

>  <Assay Description>  (276) 
Inhibition of ALK assessed as biotin-EGPWLEEEEEAYGWMDF peptide phosphorylation by TR-FRET assay

>  <BAO Format ID>  (276) 
BAO_0000357

>  <BAO Label>  (276) 
single protein format

>  <Assay Organism>  (276) 
None

>  <Target ChEMBL ID>  (276) 
CHEMBL4247

>  <Target Name>  (276) 
ALK tyrosine kinase receptor

>  <Target Organism>  (276) 
Homo sapiens

>  <Target Type>  (276) 
SINGLE PROTEIN

>  <Document ChEMBL ID>  (276) 
CHEMBL1777813

>  <Source Description>  (276) 
Scientific Literature

>  <Document Journal>  (276) 
Bioorg Med Chem Lett

>  <Document Year>  (276) 
2011.0

>  <Active>  (276) 
1.0

>  <bits>  (276) 
<rdkit.DataStructs.cDataStructs.ExplicitBitVect object at 0x000002422F189A10>

>  <Group>  (276) 
G2

$$$$

     RDKit          2D

 32 36  0  0  0  0  0  0  0  0999 V2000
    2.6491   -3.5623    0.0000 C   0  0  0  0  0  0  0  0  0  0  0  0
    1.5000   -2.5981    0.0000 C   0  0  0  0  0  0  0  0  0  0  0  0
    2.6491   -1.6339    0.0000 C   0  0  0  0  0  0  0  0  0  0  0  0
    0.7500   -1.2990    0.0000 C   0  0  0  0  0  0  0  0  0  0  0  0
    1.5000    0.0000    0.0000 C   0  0  0  0  0  0  0  0  0  0  0  0
    0.7500    1.2990    0.0000 C   0  0  0  0  0  0  0  0  0  0  0  0
    1.5000    2.5981    0.0000 N   0  0  0  0  0  0  0  0  0  0  0  0
    3.0000    2.5981    0.0000 C   0  0  0  0  0  0  0  0  0  0  0  0
    3.7500    3.8971    0.0000 C   0  0  0  0  0  0  0  0  0  0  0  0
    3.0000    5.1962    0.0000 N   0  0  0  0  0  0  0  0  0  0  0  0
    3.7500    6.4952    0.0000 S   0  0  0  0  0  0  0  0  0  0  0  0
    4.5000    7.7942    0.0000 C   0  0  0  0  0  0  0  0  0  0  0  0
    2.4510    7.2452    0.0000 O   0  0  0  0  0  0  0  0  0  0  0  0
    5.0490    5.7452    0.0000 O   0  0  0  0  0  0  0  0  0  0  0  0
    1.5000    5.1962    0.0000 C   0  0  0  0  0  0  0  0  0  0  0  0
    0.7500    3.8971    0.0000 C   0  0  0  0  0  0  0  0  0  0  0  0
   -0.7500    1.2990    0.0000 C   0  0  0  0  0  0  0  0  0  0  0  0
   -1.5000    0.0000    0.0000 C   0  0  0  0  0  0  0  0  0  0  0  0
   -0.7500   -1.2990    0.0000 C   0  0  0  0  0  0  0  0  0  0  0  0
   -1.5000   -2.5981    0.0000 C   0  0  0  0  0  0  0  0  0  0  0  0
   -3.0000   -2.5981    0.0000 O   0  0  0  0  0  0  0  0  0  0  0  0
   -0.7500   -3.8971    0.0000 C   0  0  0  0  0  0  0  0  0  0  0  0
    0.7500   -3.8971    0.0000 C   0  0  0  0  0  0  0  0  0  0  0  0
    1.2135   -5.3237    0.0000 N   0  0  0  0  0  0  0  0  0  0  0  0
    0.0000   -6.2054    0.0000 C   0  0  0  0  0  0  0  0  0  0  0  0
   -0.1568   -7.6972    0.0000 C   0  0  0  0  0  0  0  0  0  0  0  0
   -1.5271   -8.3073    0.0000 C   0  0  0  0  0  0  0  0  0  0  0  0
   -1.6839   -9.7990    0.0000 C   0  0  0  0  0  0  0  0  0  0  0  0
   -1.8407  -11.2908    0.0000 N   0  0  0  0  0  0  0  0  0  0  0  0
   -2.7406   -7.4256    0.0000 C   0  0  0  0  0  0  0  0  0  0  0  0
   -2.5838   -5.9338    0.0000 C   0  0  0  0  0  0  0  0  0  0  0  0
   -1.2135   -5.3237    0.0000 C   0  0  0  0  0  0  0  0  0  0  0  0
  1  2  1  0
  2  3  1  0
  2  4  1  0
  4  5  2  0
  5  6  1  0
  6  7  1  0
  7  8  1  0
  8  9  1  0
  9 10  1  0
 10 11  1  0
 11 12  1  0
 11 13  2  0
 11 14  2  0
 10 15  1  0
 15 16  1  0
  6 17  2  0
 17 18  1  0
 18 19  2  0
 19 20  1  0
 20 21  2  0
 20 22  1  0
 22 23  2  0
 23 24  1  0
 24 25  1  0
 25 26  2  0
 26 27  1  0
 27 28  1  0
 28 29  3  0
 27 30  2  0
 30 31  1  0
 31 32  2  0
 23  2  1  0
 32 25  1  0
 19  4  1  0
 32 22  1  0
 16  7  1  0
M  END
>  <Compound_ID>  (277) 
CHEMBL1779199

>  <Molecule Name>  (277) 
nan

>  <Molecular Weight>  (277) 
448.55

>  <AlogP>  (277) 
2.99

>  <Smiles>  (277) 
CC1(C)c2cc(N3CCN(S(C)(=O)=O)CC3)ccc2C(=O)c2c1[nH]c1cc(C#N)ccc21

>  <Standard Type>  (277) 
IC50

>  <Standard Relation>  (277) 
'='

>  <Standard Units>  (277) 
nM

>  <Standard Value>  (277) 
37.4

>  <Assay ChEMBL ID>  (277) 
CHEMBL1781770

>  <Assay Description>  (277) 
Inhibition of ALK assessed as biotin-EGPWLEEEEEAYGWMDF peptide phosphorylation by TR-FRET assay

>  <BAO Format ID>  (277) 
BAO_0000357

>  <BAO Label>  (277) 
single protein format

>  <Assay Organism>  (277) 
None

>  <Target ChEMBL ID>  (277) 
CHEMBL4247

>  <Target Name>  (277) 
ALK tyrosine kinase receptor

>  <Target Organism>  (277) 
Homo sapiens

>  <Target Type>  (277) 
SINGLE PROTEIN

>  <Document ChEMBL ID>  (277) 
CHEMBL1777813

>  <Source Description>  (277) 
Scientific Literature

>  <Document Journal>  (277) 
Bioorg Med Chem Lett

>  <Document Year>  (277) 
2011.0

>  <Active>  (277) 
1.0

>  <bits>  (277) 
<rdkit.DataStructs.cDataStructs.ExplicitBitVect object at 0x000002422F189930>

>  <Group>  (277) 
G2

$$$$

     RDKit          2D

 34 37  0  0  0  0  0  0  0  0999 V2000
    3.9786   -1.2990    0.0000 C   0  0  0  0  0  0  0  0  0  0  0  0
    3.2286   -0.0000    0.0000 C   0  0  0  0  0  0  0  0  0  0  0  0
    3.9786    1.2990    0.0000 O   0  0  0  0  0  0  0  0  0  0  0  0
    1.7286    0.0000    0.0000 N   0  0  0  0  0  0  0  0  0  0  0  0
    1.0777    1.3515    0.0000 C   0  0  0  0  0  0  0  0  0  0  0  0
   -0.3846    1.6852    0.0000 C   0  0  0  0  0  0  0  0  0  0  0  0
   -1.5574    0.7500    0.0000 C   0  0  0  0  0  0  0  0  0  0  0  0
   -2.9840    1.2135    0.0000 N   0  0  0  0  0  0  0  0  0  0  0  0
   -3.8657    0.0000    0.0000 C   0  0  0  0  0  0  0  0  0  0  0  0
   -5.3657    0.0000    0.0000 N   0  0  0  0  0  0  0  0  0  0  0  0
   -6.1157    1.2990    0.0000 C   0  0  0  0  0  0  0  0  0  0  0  0
   -5.3657    2.5981    0.0000 N   0  0  0  0  0  0  0  0  0  0  0  0
   -6.1157    3.8971    0.0000 C   0  0  0  0  0  0  0  0  0  0  0  0
   -7.6157    3.8971    0.0000 C   0  0  0  0  0  0  0  0  0  0  0  0
   -8.3657    5.1962    0.0000 Cl  0  0  0  0  0  0  0  0  0  0  0  0
   -8.3657    2.5981    0.0000 C   0  0  0  0  0  0  0  0  0  0  0  0
   -9.8657    2.5981    0.0000 N   0  0  0  0  0  0  0  0  0  0  0  0
  -10.6157    1.2990    0.0000 C   0  0  0  0  0  0  0  0  0  0  0  0
   -9.8657    0.0000    0.0000 C   0  0  0  0  0  0  0  0  0  0  0  0
  -10.6157   -1.2990    0.0000 C   0  0  0  0  0  0  0  0  0  0  0  0
  -12.1157   -1.2990    0.0000 C   0  0  0  0  0  0  0  0  0  0  0  0
  -12.8657   -0.0000    0.0000 C   0  0  0  0  0  0  0  0  0  0  0  0
  -12.1157    1.2990    0.0000 C   0  0  0  0  0  0  0  0  0  0  0  0
  -12.8657    2.5981    0.0000 S   0  0  0  0  0  0  0  0  0  0  0  0
  -11.5666    3.3481    0.0000 O   0  0  0  0  0  0  0  0  0  0  0  0
  -14.1647    1.8481    0.0000 O   0  0  0  0  0  0  0  0  0  0  0  0
  -13.6157    3.8971    0.0000 C   0  0  0  0  0  0  0  0  0  0  0  0
  -15.1157    3.8971    0.0000 C   0  0  0  0  0  0  0  0  0  0  0  0
  -12.8657    5.1962    0.0000 C   0  0  0  0  0  0  0  0  0  0  0  0
   -7.6157    1.2990    0.0000 N   0  0  0  0  0  0  0  0  0  0  0  0
   -2.9840   -1.2135    0.0000 S   0  0  0  0  0  0  0  0  0  0  0  0
   -1.5574   -0.7500    0.0000 C   0  0  0  0  0  0  0  0  0  0  0  0
   -0.3846   -1.6852    0.0000 C   0  0  0  0  0  0  0  0  0  0  0  0
    1.0777   -1.3515    0.0000 C   0  0  0  0  0  0  0  0  0  0  0  0
  1  2  1  0
  2  3  2  0
  2  4  1  0
  4  5  1  0
  5  6  1  0
  6  7  1  0
  7  8  1  0
  8  9  2  0
  9 10  1  0
 10 11  1  0
 11 12  2  0
 12 13  1  0
 13 14  2  0
 14 15  1  0
 14 16  1  0
 16 17  1  0
 17 18  1  0
 18 19  2  0
 19 20  1  0
 20 21  2  0
 21 22  1  0
 22 23  2  0
 23 24  1  0
 24 25  2  0
 24 26  2  0
 24 27  1  0
 27 28  1  0
 27 29  1  0
 16 30  2  0
  9 31  1  0
 31 32  1  0
 32 33  1  0
 33 34  1  0
 34  4  1  0
 32  7  2  0
 30 11  1  0
 23 18  1  0
M  END
>  <Compound_ID>  (278) 
CHEMBL3330852

>  <Molecule Name>  (278) 
nan

>  <Molecular Weight>  (278) 
521.07

>  <AlogP>  (278) 
4.20

>  <Smiles>  (278) 
CC(=O)N1CCc2nc(Nc3ncc(Cl)c(Nc4ccccc4S(=O)(=O)C(C)C)n3)sc2CC1

>  <Standard Type>  (278) 
IC50

>  <Standard Relation>  (278) 
'='

>  <Standard Units>  (278) 
nM

>  <Standard Value>  (278) 
99.0

>  <Assay ChEMBL ID>  (278) 
CHEMBL3383505

>  <Assay Description>  (278) 
Inhibition of purified ALK (unknown origin) after 60 mins by ELISA kinase assay

>  <BAO Format ID>  (278) 
BAO_0000357

>  <BAO Label>  (278) 
single protein format

>  <Assay Organism>  (278) 
Homo sapiens

>  <Target ChEMBL ID>  (278) 
CHEMBL4247

>  <Target Name>  (278) 
ALK tyrosine kinase receptor

>  <Target Organism>  (278) 
Homo sapiens

>  <Target Type>  (278) 
SINGLE PROTEIN

>  <Document ChEMBL ID>  (278) 
CHEMBL3352334

>  <Source Description>  (278) 
Scientific Literature

>  <Document Journal>  (278) 
Eur J Med Chem

>  <Document Year>  (278) 
2014.0

>  <Active>  (278) 
1.0

>  <bits>  (278) 
<rdkit.DataStructs.cDataStructs.ExplicitBitVect object at 0x000002422F18BCA0>

>  <Group>  (278) 
G2

$$$$

     RDKit          2D

 34 38  0  0  0  0  0  0  0  0999 V2000
   -4.6883    2.2939    0.0000 N   0  0  0  0  0  0  0  0  0  0  0  0
   -3.5736    1.2902    0.0000 C   0  0  0  0  0  0  0  0  0  0  0  0
   -3.8855   -0.1771    0.0000 O   0  0  0  0  0  0  0  0  0  0  0  0
   -2.1470    1.7537    0.0000 C   0  0  0  0  0  0  0  0  0  0  0  0
   -1.8351    3.2209    0.0000 C   0  0  0  0  0  0  0  0  0  0  0  0
   -2.9499    4.2246    0.0000 N   0  0  0  0  0  0  0  0  0  0  0  0
   -2.6380    5.6918    0.0000 C   0  0  0  0  0  0  0  0  0  0  0  0
   -1.2114    6.1554    0.0000 C   0  0  0  0  0  0  0  0  0  0  0  0
   -0.8995    7.6226    0.0000 C   0  0  0  0  0  0  0  0  0  0  0  0
   -2.0143    8.6263    0.0000 C   0  0  0  0  0  0  0  0  0  0  0  0
   -1.7024   10.0935    0.0000 C   0  0  0  0  0  0  0  0  0  0  0  0
   -0.2758   10.5570    0.0000 C   0  0  0  0  0  0  0  0  0  0  0  0
    0.0361   12.0242    0.0000 C   0  0  0  0  0  0  0  0  0  0  0  0
   -1.0786   13.0279    0.0000 N   0  0  0  0  0  0  0  0  0  0  0  0
   -2.5052   12.5644    0.0000 C   0  0  0  0  0  0  0  0  0  0  0  0
   -2.8171   11.0972    0.0000 C   0  0  0  0  0  0  0  0  0  0  0  0
   -3.4408    8.1628    0.0000 C   0  0  0  0  0  0  0  0  0  0  0  0
   -3.7527    6.6955    0.0000 C   0  0  0  0  0  0  0  0  0  0  0  0
   -5.1793    6.2320    0.0000 Cl  0  0  0  0  0  0  0  0  0  0  0  0
   -0.4086    3.6844    0.0000 N   0  0  0  0  0  0  0  0  0  0  0  0
    0.7062    2.6807    0.0000 C   0  0  0  0  0  0  0  0  0  0  0  0
    2.1328    3.1443    0.0000 C   0  0  0  0  0  0  0  0  0  0  0  0
    2.4446    4.6115    0.0000 C   0  0  0  0  0  0  0  0  0  0  0  0
    3.8712    5.0750    0.0000 C   0  0  0  0  0  0  0  0  0  0  0  0
    4.1831    6.5422    0.0000 C   0  0  0  0  0  0  0  0  0  0  0  0
    3.0684    7.5459    0.0000 C   0  0  0  0  0  0  0  0  0  0  0  0
    1.6418    7.0824    0.0000 C   0  0  0  0  0  0  0  0  0  0  0  0
    1.3299    5.6152    0.0000 C   0  0  0  0  0  0  0  0  0  0  0  0
   -0.0967    5.1517    0.0000 Cl  0  0  0  0  0  0  0  0  0  0  0  0
    0.3943    1.2135    0.0000 N   0  0  0  0  0  0  0  0  0  0  0  0
    1.2760    0.0000    0.0000 C   0  0  0  0  0  0  0  0  0  0  0  0
    0.3943   -1.2135    0.0000 N   0  0  0  0  0  0  0  0  0  0  0  0
   -1.0323   -0.7500    0.0000 N   0  0  0  0  0  0  0  0  0  0  0  0
   -1.0323    0.7500    0.0000 C   0  0  0  0  0  0  0  0  0  0  0  0
  1  2  1  0
  2  3  2  0
  2  4  1  0
  4  5  2  0
  5  6  1  0
  6  7  1  0
  7  8  2  0
  8  9  1  0
  9 10  2  0
 10 11  1  0
 11 12  1  0
 12 13  1  0
 13 14  1  0
 14 15  1  0
 15 16  1  0
 10 17  1  0
 17 18  2  0
 18 19  1  0
  5 20  1  0
 20 21  2  0
 21 22  1  0
 22 23  1  0
 23 24  2  0
 24 25  1  0
 25 26  2  0
 26 27  1  0
 27 28  2  0
 28 29  1  0
 21 30  1  0
 30 31  1  0
 31 32  2  0
 32 33  1  0
 33 34  2  0
 34  4  1  0
 18  7  1  0
 28 23  1  0
 34 30  1  0
 16 11  1  0
M  END
>  <Compound_ID>  (279) 
CHEMBL3936641

>  <Molecule Name>  (279) 
nan

>  <Molecular Weight>  (279) 
496.4

>  <AlogP>  (279) 
4.33

>  <Smiles>  (279) 
NC(=O)c1c(Nc2ccc(C3CCNCC3)cc2Cl)nc(Cc2ccccc2Cl)n2cnnc12

>  <Standard Type>  (279) 
Ki

>  <Standard Relation>  (279) 
'='

>  <Standard Units>  (279) 
nM

>  <Standard Value>  (279) 
1.0

>  <Assay ChEMBL ID>  (279) 
CHEMBL3887723

>  <Assay Description>  (279) 
Enzyme Inhibition Assay: ALK kinase assays were conducted with the indicated final concentrations unless otherwise specified. In 384 well black plates (Axygen), 8 ul of compound (2% DMSO) was incubated with 8 ul Lck-peptide substrate (0.5 uM, biotin-Ahx-GAEEEIYAAFFA-COOH) and 8 ul of a mixture of ALK (3 nM, Millipore) and ATP (50 uM) in reaction buffer (50 mM Hepes, pH 7.4; 10 mM MgCl2; 2 mM MnCl2; 0.1 mM sodium orthovanadate; 0.01% BSA and 1 mM DTT (added fresh before assay) for 1 h at room temperature. Reactions were then quenched by the addition of 30 ul quench solution (streptavidin-allophycocyanin and Europium-cryptate PT66 monoclonal antibody in 40 mM Hepes, pH 7.4; 480 mM KF; 66 mM EDTA; 0.01% Tween-20; and 0.1% BSA) at room temperature. Plates were read 1 h after quenching on an Envision Multilaber Reader and IC50 values were calculated using a sigmoidal fit of the concentration/inhibition response curves. These values were converted to apparent Ki values.

>  <BAO Format ID>  (279) 
BAO_0000357

>  <BAO Label>  (279) 
single protein format

>  <Assay Organism>  (279) 
Homo sapiens

>  <Target ChEMBL ID>  (279) 
CHEMBL4247

>  <Target Name>  (279) 
ALK tyrosine kinase receptor

>  <Target Organism>  (279) 
Homo sapiens

>  <Target Type>  (279) 
SINGLE PROTEIN

>  <Document ChEMBL ID>  (279) 
CHEMBL3886424

>  <Source Description>  (279) 
BindingDB Database

>  <Document Journal>  (279) 
nan

>  <Document Year>  (279) 
2015.0

>  <Active>  (279) 
1.0

>  <bits>  (279) 
<rdkit.DataStructs.cDataStructs.ExplicitBitVect object at 0x000002422F1895B0>

>  <Group>  (279) 
G2

$$$$

     RDKit          2D

 45 50  0  0  0  0  0  0  0  0999 V2000
  -13.5163   -1.8037    0.0000 C   0  0  0  0  0  0  0  0  0  0  0  0
  -12.2173   -2.5537    0.0000 N   0  0  0  0  0  0  0  0  0  0  0  0
  -10.9182   -1.8037    0.0000 C   0  0  0  0  0  0  0  0  0  0  0  0
   -9.6192   -2.5537    0.0000 C   0  0  0  0  0  0  0  0  0  0  0  0
   -9.6192   -4.0537    0.0000 N   0  0  0  0  0  0  0  0  0  0  0  0
   -8.3202   -4.8037    0.0000 C   0  0  0  0  0  0  0  0  0  0  0  0
   -8.3202   -6.3037    0.0000 O   0  0  0  0  0  0  0  0  0  0  0  0
   -7.0211   -4.0537    0.0000 C   0  0  0  0  0  0  0  0  0  0  0  0
   -5.7221   -4.8037    0.0000 C   0  0  0  0  0  0  0  0  0  0  0  0
   -4.4231   -4.0537    0.0000 C   0  0  0  0  0  0  0  0  0  0  0  0
   -4.4231   -2.5537    0.0000 C   0  0  0  0  0  0  0  0  0  0  0  0
   -3.1240   -1.8037    0.0000 C   0  0  0  0  0  0  0  0  0  0  0  0
   -1.7537   -2.4138    0.0000 C   0  0  0  0  0  0  0  0  0  0  0  0
   -0.7500   -1.2990    0.0000 C   0  0  0  0  0  0  0  0  0  0  0  0
    0.7500   -1.2990    0.0000 C   0  0  0  0  0  0  0  0  0  0  0  0
    1.5000   -2.5981    0.0000 N   0  0  0  0  0  0  0  0  0  0  0  0
    0.7500   -3.8971    0.0000 C   0  0  0  0  0  0  0  0  0  0  0  0
    1.5000   -5.1962    0.0000 C   0  0  0  0  0  0  0  0  0  0  0  0
    3.0000   -5.1962    0.0000 C   0  0  0  0  0  0  0  0  0  0  0  0
    3.7500   -3.8971    0.0000 C   0  0  0  0  0  0  0  0  0  0  0  0
    5.2500   -3.8971    0.0000 C   0  0  0  0  0  0  0  0  0  0  0  0
    6.0000   -2.5981    0.0000 O   0  0  0  0  0  0  0  0  0  0  0  0
    6.0000   -5.1962    0.0000 N   0  0  0  0  0  0  0  0  0  0  0  0
    7.5000   -5.1962    0.0000 C   0  0  0  0  0  0  0  0  0  0  0  0
    8.2500   -6.4952    0.0000 C   0  0  0  0  0  0  0  0  0  0  0  0
    7.5000   -7.7942    0.0000 C   0  0  0  0  0  0  0  0  0  0  0  0
    8.2500   -9.0933    0.0000 C   0  0  0  0  0  0  0  0  0  0  0  0
    9.7500   -9.0933    0.0000 C   0  0  0  0  0  0  0  0  0  0  0  0
   10.5000  -10.3923    0.0000 O   0  0  0  0  0  0  0  0  0  0  0  0
    9.7500  -11.6913    0.0000 C   0  0  0  0  0  0  0  0  0  0  0  0
    9.0000  -12.9904    0.0000 F   0  0  0  0  0  0  0  0  0  0  0  0
   11.0490  -12.4413    0.0000 F   0  0  0  0  0  0  0  0  0  0  0  0
    8.4510  -10.9413    0.0000 F   0  0  0  0  0  0  0  0  0  0  0  0
   10.5000   -7.7942    0.0000 C   0  0  0  0  0  0  0  0  0  0  0  0
    9.7500   -6.4952    0.0000 C   0  0  0  0  0  0  0  0  0  0  0  0
    3.0000   -2.5981    0.0000 C   0  0  0  0  0  0  0  0  0  0  0  0
    1.5000    0.0000    0.0000 N   0  0  0  0  0  0  0  0  0  0  0  0
    0.7500    1.2990    0.0000 C   0  0  0  0  0  0  0  0  0  0  0  0
   -0.7500    1.2990    0.0000 N   0  0  0  0  0  0  0  0  0  0  0  0
   -1.5000    0.0000    0.0000 C   0  0  0  0  0  0  0  0  0  0  0  0
   -2.9672   -0.3119    0.0000 N   0  0  0  0  0  0  0  0  0  0  0  0
   -5.7221   -1.8037    0.0000 C   0  0  0  0  0  0  0  0  0  0  0  0
   -7.0211   -2.5537    0.0000 C   0  0  0  0  0  0  0  0  0  0  0  0
  -10.9182   -4.8037    0.0000 C   0  0  0  0  0  0  0  0  0  0  0  0
  -12.2173   -4.0537    0.0000 C   0  0  0  0  0  0  0  0  0  0  0  0
  1  2  1  0
  2  3  1  0
  3  4  1  0
  4  5  1  0
  5  6  1  0
  6  7  2  0
  6  8  1  0
  8  9  2  0
  9 10  1  0
 10 11  2  0
 11 12  1  0
 12 13  2  0
 13 14  1  0
 14 15  2  0
 15 16  1  0
 16 17  1  0
 17 18  1  0
 18 19  1  0
 19 20  1  0
 20 21  1  1
 21 22  2  0
 21 23  1  0
 23 24  1  0
 24 25  1  0
 25 26  2  0
 26 27  1  0
 27 28  2  0
 28 29  1  0
 29 30  1  0
 30 31  1  0
 30 32  1  0
 30 33  1  0
 28 34  1  0
 34 35  2  0
 20 36  1  0
 15 37  1  0
 37 38  2  0
 38 39  1  0
 39 40  2  0
 40 41  1  0
 11 42  1  0
 42 43  2  0
  5 44  1  0
 44 45  1  0
 45  2  1  0
 43  8  1  0
 41 12  1  0
 40 14  1  0
 36 16  1  0
 35 25  1  0
M  END
>  <Compound_ID>  (280) 
CHEMBL4461100

>  <Molecule Name>  (280) 
nan

>  <Molecular Weight>  (280) 
621.66

>  <AlogP>  (280) 
4.44

>  <Smiles>  (280) 
CN1CCN(C(=O)c2ccc(-c3cc4c(N5CCC[C@H](C(=O)NCc6ccc(OC(F)(F)F)cc6)C5)ncnc4[nH]3)cc2)CC1

>  <Standard Type>  (280) 
IC50

>  <Standard Relation>  (280) 
'='

>  <Standard Units>  (280) 
nM

>  <Standard Value>  (280) 
0.6

>  <Assay ChEMBL ID>  (280) 
CHEMBL4378261

>  <Assay Description>  (280) 
Inhibition of ALK (unknown origin) by TR-FRET assay

>  <BAO Format ID>  (280) 
BAO_0000357

>  <BAO Label>  (280) 
single protein format

>  <Assay Organism>  (280) 
Homo sapiens

>  <Target ChEMBL ID>  (280) 
CHEMBL4247

>  <Target Name>  (280) 
ALK tyrosine kinase receptor

>  <Target Organism>  (280) 
Homo sapiens

>  <Target Type>  (280) 
SINGLE PROTEIN

>  <Document ChEMBL ID>  (280) 
CHEMBL4376817

>  <Source Description>  (280) 
Scientific Literature

>  <Document Journal>  (280) 
J Med Chem

>  <Document Year>  (280) 
2019.0

>  <Active>  (280) 
1.0

>  <bits>  (280) 
<rdkit.DataStructs.cDataStructs.ExplicitBitVect object at 0x000002422F18B840>

>  <Group>  (280) 
G2

$$$$

     RDKit          2D

 35 40  0  0  0  0  0  0  0  0999 V2000
   -6.1084  -12.0149    0.0000 C   0  0  0  0  0  0  0  0  0  0  0  0
   -4.7381  -11.4047    0.0000 C   0  0  0  0  0  0  0  0  0  0  0  0
   -4.5813   -9.9130    0.0000 C   0  0  0  0  0  0  0  0  0  0  0  0
   -3.2110   -9.3029    0.0000 N   0  0  0  0  0  0  0  0  0  0  0  0
   -3.0542   -7.8111    0.0000 C   0  0  0  0  0  0  0  0  0  0  0  0
   -1.6839   -7.2010    0.0000 C   0  0  0  0  0  0  0  0  0  0  0  0
   -1.5271   -5.7092    0.0000 C   0  0  0  0  0  0  0  0  0  0  0  0
   -2.7406   -4.8275    0.0000 C   0  0  0  0  0  0  0  0  0  0  0  0
   -4.1110   -5.4376    0.0000 C   0  0  0  0  0  0  0  0  0  0  0  0
   -4.2677   -6.9294    0.0000 C   0  0  0  0  0  0  0  0  0  0  0  0
   -5.6381   -7.5395    0.0000 Br  0  0  0  0  0  0  0  0  0  0  0  0
   -2.5838   -3.3357    0.0000 C   0  0  0  0  0  0  0  0  0  0  0  0
   -3.7974   -2.4540    0.0000 O   0  0  0  0  0  0  0  0  0  0  0  0
   -1.2135   -2.7256    0.0000 C   0  0  0  0  0  0  0  0  0  0  0  0
   -0.0000   -3.6073    0.0000 C   0  0  0  0  0  0  0  0  0  0  0  0
    1.2135   -2.7256    0.0000 N   0  0  0  0  0  0  0  0  0  0  0  0
    0.7500   -1.2990    0.0000 C   0  0  0  0  0  0  0  0  0  0  0  0
    1.5000    0.0000    0.0000 C   0  0  0  0  0  0  0  0  0  0  0  0
    0.7500    1.2990    0.0000 C   0  0  0  0  0  0  0  0  0  0  0  0
    1.5000    2.5981    0.0000 C   0  0  0  0  0  0  0  0  0  0  0  0
    2.2500    3.8971    0.0000 N   0  0  0  0  0  0  0  0  0  0  0  0
   -0.7500    1.2990    0.0000 C   0  0  0  0  0  0  0  0  0  0  0  0
   -1.5000    0.0000    0.0000 C   0  0  0  0  0  0  0  0  0  0  0  0
   -0.7500   -1.2990    0.0000 C   0  0  0  0  0  0  0  0  0  0  0  0
   -0.1568   -5.0991    0.0000 C   0  0  0  0  0  0  0  0  0  0  0  0
    0.2061   -6.5545    0.0000 C   0  0  0  0  0  0  0  0  0  0  0  0
    1.3396   -4.9944    0.0000 C   0  0  0  0  0  0  0  0  0  0  0  0
   -1.9975  -10.1845    0.0000 C   0  0  0  0  0  0  0  0  0  0  0  0
   -2.1543  -11.6763    0.0000 C   0  0  0  0  0  0  0  0  0  0  0  0
   -0.9408  -12.5580    0.0000 C   0  0  0  0  0  0  0  0  0  0  0  0
   -3.5246  -12.2864    0.0000 N   0  0  0  0  0  0  0  0  0  0  0  0
   -3.6814  -13.7782    0.0000 C   0  0  0  0  0  0  0  0  0  0  0  0
   -4.8471  -14.7222    0.0000 C   0  0  0  0  0  0  0  0  0  0  0  0
   -3.9031  -15.8879    0.0000 C   0  0  0  0  0  0  0  0  0  0  0  0
   -2.7374  -14.9439    0.0000 C   0  0  0  0  0  0  0  0  0  0  0  0
  2  1  1  6
  2  3  1  0
  3  4  1  0
  4  5  1  0
  5  6  2  0
  6  7  1  0
  7  8  2  0
  8  9  1  0
  9 10  2  0
 10 11  1  0
  8 12  1  0
 12 13  2  0
 12 14  1  0
 14 15  2  0
 15 16  1  0
 16 17  1  0
 17 18  2  0
 18 19  1  0
 19 20  1  0
 20 21  3  0
 19 22  2  0
 22 23  1  0
 23 24  2  0
 15 25  1  0
 25 26  1  0
 25 27  1  0
  4 28  1  0
 28 29  1  0
 29 30  1  6
 29 31  1  0
 31 32  1  0
 32 33  1  0
 33 34  1  0
 34 35  1  0
 31  2  1  0
 35 32  1  0
 10  5  1  0
 24 14  1  0
 25  7  1  0
 24 17  1  0
M  END
>  <Compound_ID>  (281) 
CHEMBL3917178

>  <Molecule Name>  (281) 
nan

>  <Molecular Weight>  (281) 
531.5

>  <AlogP>  (281) 
6.12

>  <Smiles>  (281) 
C[C@@H]1CN(c2cc3c(cc2Br)C(=O)c2c([nH]c4cc(C#N)ccc24)C3(C)C)C[C@H](C)N1C1CCC1

>  <Standard Type>  (281) 
IC50

>  <Standard Relation>  (281) 
'='

>  <Standard Units>  (281) 
nM

>  <Standard Value>  (281) 
0.3

>  <Assay ChEMBL ID>  (281) 
CHEMBL3887074

>  <Assay Description>  (281) 
Inhibition Assay: ALK-inhibiting activity was measured by following an activity of inhibiting phosphorylation by biotinylated peptide (EGPWLEEEEEAYGWMDF). For the detection of phosphorylation of the biotinylated peptide, time-resolved fluorescence measurement was performed using an anti-phosphorylated tyrosine antibody labeled with europium cryptate and streptavidin conjugated to XL665, i.e., an allophycocyanin derivative.

>  <BAO Format ID>  (281) 
BAO_0000357

>  <BAO Label>  (281) 
single protein format

>  <Assay Organism>  (281) 
Homo sapiens

>  <Target ChEMBL ID>  (281) 
CHEMBL4247

>  <Target Name>  (281) 
ALK tyrosine kinase receptor

>  <Target Organism>  (281) 
Homo sapiens

>  <Target Type>  (281) 
SINGLE PROTEIN

>  <Document ChEMBL ID>  (281) 
CHEMBL3886150

>  <Source Description>  (281) 
BindingDB Database

>  <Document Journal>  (281) 
nan

>  <Document Year>  (281) 
2015.0

>  <Active>  (281) 
1.0

>  <bits>  (281) 
<rdkit.DataStructs.cDataStructs.ExplicitBitVect object at 0x000002422F18BD80>

>  <Group>  (281) 
G2

$$$$

     RDKit          2D

 37 42  0  0  0  0  0  0  0  0999 V2000
   -6.8516   -6.6578    0.0000 C   0  0  0  0  0  0  0  0  0  0  0  0
   -5.6381   -7.5395    0.0000 C   0  0  0  0  0  0  0  0  0  0  0  0
   -4.2677   -6.9294    0.0000 C   0  0  0  0  0  0  0  0  0  0  0  0
   -4.1110   -5.4376    0.0000 C   0  0  0  0  0  0  0  0  0  0  0  0
   -2.7406   -4.8275    0.0000 C   0  0  0  0  0  0  0  0  0  0  0  0
   -1.5271   -5.7092    0.0000 C   0  0  0  0  0  0  0  0  0  0  0  0
   -1.6839   -7.2010    0.0000 C   0  0  0  0  0  0  0  0  0  0  0  0
   -3.0542   -7.8111    0.0000 C   0  0  0  0  0  0  0  0  0  0  0  0
   -3.2110   -9.3029    0.0000 N   0  0  0  0  0  0  0  0  0  0  0  0
   -4.5813   -9.9130    0.0000 C   0  0  0  0  0  0  0  0  0  0  0  0
   -4.7381  -11.4047    0.0000 C   0  0  0  0  0  0  0  0  0  0  0  0
   -3.5246  -12.2864    0.0000 N   0  0  0  0  0  0  0  0  0  0  0  0
   -3.6814  -13.7782    0.0000 C   0  0  0  0  0  0  0  0  0  0  0  0
   -5.0517  -14.3883    0.0000 C   0  0  0  0  0  0  0  0  0  0  0  0
   -5.3636  -15.8555    0.0000 C   0  0  0  0  0  0  0  0  0  0  0  0
   -6.8554  -16.0123    0.0000 C   0  0  0  0  0  0  0  0  0  0  0  0
   -7.4655  -14.6420    0.0000 C   0  0  0  0  0  0  0  0  0  0  0  0
   -8.9327  -14.3301    0.0000 O   0  0  0  0  0  0  0  0  0  0  0  0
   -6.3507  -13.6383    0.0000 N   0  0  0  0  0  0  0  0  0  0  0  0
   -2.1543  -11.6763    0.0000 C   0  0  0  0  0  0  0  0  0  0  0  0
   -1.9975  -10.1845    0.0000 C   0  0  0  0  0  0  0  0  0  0  0  0
   -0.1568   -5.0991    0.0000 C   0  0  0  0  0  0  0  0  0  0  0  0
    1.3396   -4.9944    0.0000 C   0  0  0  0  0  0  0  0  0  0  0  0
    0.2061   -6.5545    0.0000 C   0  0  0  0  0  0  0  0  0  0  0  0
   -0.0000   -3.6073    0.0000 C   0  0  0  0  0  0  0  0  0  0  0  0
    1.2135   -2.7256    0.0000 N   0  0  0  0  0  0  0  0  0  0  0  0
    0.7500   -1.2990    0.0000 C   0  0  0  0  0  0  0  0  0  0  0  0
    1.5000    0.0000    0.0000 C   0  0  0  0  0  0  0  0  0  0  0  0
    0.7500    1.2990    0.0000 C   0  0  0  0  0  0  0  0  0  0  0  0
    1.5000    2.5981    0.0000 C   0  0  0  0  0  0  0  0  0  0  0  0
    2.2500    3.8971    0.0000 N   0  0  0  0  0  0  0  0  0  0  0  0
   -0.7500    1.2990    0.0000 C   0  0  0  0  0  0  0  0  0  0  0  0
   -1.5000    0.0000    0.0000 C   0  0  0  0  0  0  0  0  0  0  0  0
   -0.7500   -1.2990    0.0000 C   0  0  0  0  0  0  0  0  0  0  0  0
   -1.2135   -2.7256    0.0000 C   0  0  0  0  0  0  0  0  0  0  0  0
   -2.5838   -3.3357    0.0000 C   0  0  0  0  0  0  0  0  0  0  0  0
   -3.7974   -2.4540    0.0000 O   0  0  0  0  0  0  0  0  0  0  0  0
  1  2  1  0
  2  3  1  0
  3  4  2  0
  4  5  1  0
  5  6  2  0
  6  7  1  0
  7  8  2  0
  8  9  1  0
  9 10  1  0
 10 11  1  0
 11 12  1  0
 12 13  1  0
 14 13  1  6
 14 15  1  0
 15 16  1  0
 16 17  1  0
 17 18  2  0
 17 19  1  0
 12 20  1  0
 20 21  1  0
  6 22  1  0
 22 23  1  0
 22 24  1  0
 22 25  1  0
 25 26  1  0
 26 27  1  0
 27 28  2  0
 28 29  1  0
 29 30  1  0
 30 31  3  0
 29 32  2  0
 32 33  1  0
 33 34  2  0
 34 35  1  0
 35 36  1  0
 36 37  2  0
  8  3  1  0
 21  9  1  0
 35 25  2  0
 36  5  1  0
 19 14  1  0
 34 27  1  0
M  END
>  <Compound_ID>  (282) 
CHEMBL3735794

>  <Molecule Name>  (282) 
nan

>  <Molecular Weight>  (282) 
495.63

>  <AlogP>  (282) 
3.87

>  <Smiles>  (282) 
CCc1cc2c(cc1N1CCN(C[C@@H]3CCC(=O)N3)CC1)C(C)(C)c1[nH]c3cc(C#N)ccc3c1C2=O

>  <Standard Type>  (282) 
IC50

>  <Standard Relation>  (282) 
'='

>  <Standard Units>  (282) 
nM

>  <Standard Value>  (282) 
1.3

>  <Assay ChEMBL ID>  (282) 
CHEMBL3738493

>  <Assay Description>  (282) 
Inhibition of recombinant ALK (unknown origin) using poly (Glu, Tyr)4:1 substrate incubated for 60 mins by ELISA

>  <BAO Format ID>  (282) 
BAO_0000357

>  <BAO Label>  (282) 
single protein format

>  <Assay Organism>  (282) 
Homo sapiens

>  <Target ChEMBL ID>  (282) 
CHEMBL4247

>  <Target Name>  (282) 
ALK tyrosine kinase receptor

>  <Target Organism>  (282) 
Homo sapiens

>  <Target Type>  (282) 
SINGLE PROTEIN

>  <Document ChEMBL ID>  (282) 
CHEMBL3734710

>  <Source Description>  (282) 
Scientific Literature

>  <Document Journal>  (282) 
Eur J Med Chem

>  <Document Year>  (282) 
2015.0

>  <Active>  (282) 
1.0

>  <bits>  (282) 
<rdkit.DataStructs.cDataStructs.ExplicitBitVect object at 0x000002422F18B6F0>

>  <Group>  (282) 
G2

$$$$

     RDKit          2D

 36 40  0  0  0  0  0  0  0  0999 V2000
   -8.2219   -7.2679    0.0000 C   0  0  0  0  0  0  0  0  0  0  0  0
   -6.8516   -6.6578    0.0000 C   0  0  0  0  0  0  0  0  0  0  0  0
   -5.6381   -7.5395    0.0000 C   0  0  0  0  0  0  0  0  0  0  0  0
   -4.2677   -6.9294    0.0000 C   0  0  0  0  0  0  0  0  0  0  0  0
   -4.1110   -5.4376    0.0000 C   0  0  0  0  0  0  0  0  0  0  0  0
   -2.7406   -4.8275    0.0000 C   0  0  0  0  0  0  0  0  0  0  0  0
   -1.5271   -5.7092    0.0000 C   0  0  0  0  0  0  0  0  0  0  0  0
   -1.6839   -7.2010    0.0000 C   0  0  0  0  0  0  0  0  0  0  0  0
   -3.0542   -7.8111    0.0000 C   0  0  0  0  0  0  0  0  0  0  0  0
   -3.2110   -9.3029    0.0000 N   0  0  0  0  0  0  0  0  0  0  0  0
   -4.5813   -9.9130    0.0000 C   0  0  0  0  0  0  0  0  0  0  0  0
   -4.7381  -11.4047    0.0000 C   0  0  0  0  0  0  0  0  0  0  0  0
   -3.5246  -12.2864    0.0000 N   0  0  0  0  0  0  0  0  0  0  0  0
   -3.6814  -13.7782    0.0000 C   0  0  0  0  0  0  0  0  0  0  0  0
   -5.0517  -14.3883    0.0000 C   0  0  0  0  0  0  0  0  0  0  0  0
   -5.2085  -15.8801    0.0000 C   0  0  0  0  0  0  0  0  0  0  0  0
   -6.5788  -16.4902    0.0000 C   0  0  0  0  0  0  0  0  0  0  0  0
   -6.7356  -17.9820    0.0000 O   0  0  0  0  0  0  0  0  0  0  0  0
   -2.1543  -11.6763    0.0000 C   0  0  0  0  0  0  0  0  0  0  0  0
   -1.9975  -10.1845    0.0000 C   0  0  0  0  0  0  0  0  0  0  0  0
   -0.1568   -5.0991    0.0000 C   0  0  0  0  0  0  0  0  0  0  0  0
    1.3396   -4.9944    0.0000 C   0  0  0  0  0  0  0  0  0  0  0  0
    0.2061   -6.5545    0.0000 C   0  0  0  0  0  0  0  0  0  0  0  0
   -0.0000   -3.6073    0.0000 C   0  0  0  0  0  0  0  0  0  0  0  0
    1.2135   -2.7256    0.0000 N   0  0  0  0  0  0  0  0  0  0  0  0
    0.7500   -1.2990    0.0000 C   0  0  0  0  0  0  0  0  0  0  0  0
    1.5000    0.0000    0.0000 C   0  0  0  0  0  0  0  0  0  0  0  0
    0.7500    1.2990    0.0000 C   0  0  0  0  0  0  0  0  0  0  0  0
    1.5000    2.5981    0.0000 C   0  0  0  0  0  0  0  0  0  0  0  0
    2.2500    3.8971    0.0000 N   0  0  0  0  0  0  0  0  0  0  0  0
   -0.7500    1.2990    0.0000 C   0  0  0  0  0  0  0  0  0  0  0  0
   -1.5000    0.0000    0.0000 C   0  0  0  0  0  0  0  0  0  0  0  0
   -0.7500   -1.2990    0.0000 C   0  0  0  0  0  0  0  0  0  0  0  0
   -1.2135   -2.7256    0.0000 C   0  0  0  0  0  0  0  0  0  0  0  0
   -2.5838   -3.3357    0.0000 C   0  0  0  0  0  0  0  0  0  0  0  0
   -3.7974   -2.4540    0.0000 O   0  0  0  0  0  0  0  0  0  0  0  0
  1  2  1  0
  2  3  1  0
  3  4  1  0
  4  5  2  0
  5  6  1  0
  6  7  2  0
  7  8  1  0
  8  9  2  0
  9 10  1  0
 10 11  1  0
 11 12  1  0
 12 13  1  0
 13 14  1  0
 14 15  1  0
 15 16  1  0
 16 17  1  0
 17 18  1  0
 13 19  1  0
 19 20  1  0
  7 21  1  0
 21 22  1  0
 21 23  1  0
 21 24  1  0
 24 25  1  0
 25 26  1  0
 26 27  2  0
 27 28  1  0
 28 29  1  0
 29 30  3  0
 28 31  2  0
 31 32  1  0
 32 33  2  0
 33 34  1  0
 34 35  1  0
 35 36  2  0
  9  4  1  0
 20 10  1  0
 34 24  2  0
 35  6  1  0
 33 26  1  0
M  END
>  <Compound_ID>  (283) 
CHEMBL3924077

>  <Molecule Name>  (283) 
nan

>  <Molecular Weight>  (283) 
484.64

>  <AlogP>  (283) 
4.76

>  <Smiles>  (283) 
CCCc1cc2c(cc1N1CCN(CCCCO)CC1)C(C)(C)c1[nH]c3cc(C#N)ccc3c1C2=O

>  <Standard Type>  (283) 
IC50

>  <Standard Relation>  (283) 
'='

>  <Standard Units>  (283) 
nM

>  <Standard Value>  (283) 
1.093

>  <Assay ChEMBL ID>  (283) 
CHEMBL3887074

>  <Assay Description>  (283) 
Inhibition Assay: ALK-inhibiting activity was measured by following an activity of inhibiting phosphorylation by biotinylated peptide (EGPWLEEEEEAYGWMDF). For the detection of phosphorylation of the biotinylated peptide, time-resolved fluorescence measurement was performed using an anti-phosphorylated tyrosine antibody labeled with europium cryptate and streptavidin conjugated to XL665, i.e., an allophycocyanin derivative.

>  <BAO Format ID>  (283) 
BAO_0000357

>  <BAO Label>  (283) 
single protein format

>  <Assay Organism>  (283) 
Homo sapiens

>  <Target ChEMBL ID>  (283) 
CHEMBL4247

>  <Target Name>  (283) 
ALK tyrosine kinase receptor

>  <Target Organism>  (283) 
Homo sapiens

>  <Target Type>  (283) 
SINGLE PROTEIN

>  <Document ChEMBL ID>  (283) 
CHEMBL3886150

>  <Source Description>  (283) 
BindingDB Database

>  <Document Journal>  (283) 
nan

>  <Document Year>  (283) 
2015.0

>  <Active>  (283) 
1.0

>  <bits>  (283) 
<rdkit.DataStructs.cDataStructs.ExplicitBitVect object at 0x000002422F18B760>

>  <Group>  (283) 
G2

$$$$

     RDKit          2D

 30 34  0  0  0  0  0  0  0  0999 V2000
    1.3396   -4.9944    0.0000 C   0  0  0  0  0  0  0  0  0  0  0  0
   -0.1568   -5.0991    0.0000 C   0  0  0  0  0  0  0  0  0  0  0  0
    0.2061   -6.5545    0.0000 C   0  0  0  0  0  0  0  0  0  0  0  0
   -1.5271   -5.7092    0.0000 C   0  0  0  0  0  0  0  0  0  0  0  0
   -1.6839   -7.2010    0.0000 C   0  0  0  0  0  0  0  0  0  0  0  0
   -3.0542   -7.8111    0.0000 C   0  0  0  0  0  0  0  0  0  0  0  0
   -3.2110   -9.3029    0.0000 N   0  0  0  0  0  0  0  0  0  0  0  0
   -4.5813   -9.9130    0.0000 C   0  0  0  0  0  0  0  0  0  0  0  0
   -4.7381  -11.4047    0.0000 C   0  0  0  0  0  0  0  0  0  0  0  0
   -3.5246  -12.2864    0.0000 C   0  0  0  0  0  0  0  0  0  0  0  0
   -3.6814  -13.7782    0.0000 N   0  0  0  0  0  0  0  0  0  0  0  0
   -2.1543  -11.6763    0.0000 C   0  0  0  0  0  0  0  0  0  0  0  0
   -1.9975  -10.1845    0.0000 C   0  0  0  0  0  0  0  0  0  0  0  0
   -4.2677   -6.9294    0.0000 C   0  0  0  0  0  0  0  0  0  0  0  0
   -5.6381   -7.5395    0.0000 Br  0  0  0  0  0  0  0  0  0  0  0  0
   -4.1110   -5.4376    0.0000 C   0  0  0  0  0  0  0  0  0  0  0  0
   -2.7406   -4.8275    0.0000 C   0  0  0  0  0  0  0  0  0  0  0  0
   -2.5838   -3.3357    0.0000 C   0  0  0  0  0  0  0  0  0  0  0  0
   -3.7974   -2.4540    0.0000 O   0  0  0  0  0  0  0  0  0  0  0  0
   -1.2135   -2.7256    0.0000 C   0  0  0  0  0  0  0  0  0  0  0  0
   -0.0000   -3.6073    0.0000 C   0  0  0  0  0  0  0  0  0  0  0  0
    1.2135   -2.7256    0.0000 N   0  0  0  0  0  0  0  0  0  0  0  0
    0.7500   -1.2990    0.0000 C   0  0  0  0  0  0  0  0  0  0  0  0
    1.5000    0.0000    0.0000 C   0  0  0  0  0  0  0  0  0  0  0  0
    0.7500    1.2990    0.0000 C   0  0  0  0  0  0  0  0  0  0  0  0
    1.5000    2.5981    0.0000 C   0  0  0  0  0  0  0  0  0  0  0  0
    2.2500    3.8971    0.0000 N   0  0  0  0  0  0  0  0  0  0  0  0
   -0.7500    1.2990    0.0000 C   0  0  0  0  0  0  0  0  0  0  0  0
   -1.5000    0.0000    0.0000 C   0  0  0  0  0  0  0  0  0  0  0  0
   -0.7500   -1.2990    0.0000 C   0  0  0  0  0  0  0  0  0  0  0  0
  1  2  1  0
  2  3  1  0
  2  4  1  0
  4  5  2  0
  5  6  1  0
  6  7  1  0
  7  8  1  0
  8  9  1  0
  9 10  1  0
 10 11  1  0
 10 12  1  0
 12 13  1  0
  6 14  2  0
 14 15  1  0
 14 16  1  0
 16 17  2  0
 17 18  1  0
 18 19  2  0
 18 20  1  0
 20 21  2  0
 21 22  1  0
 22 23  1  0
 23 24  2  0
 24 25  1  0
 25 26  1  0
 26 27  3  0
 25 28  2  0
 28 29  1  0
 29 30  2  0
 21  2  1  0
 30 23  1  0
 17  4  1  0
 30 20  1  0
 13  7  1  0
M  END
>  <Compound_ID>  (284) 
CHEMBL3892880

>  <Molecule Name>  (284) 
nan

>  <Molecular Weight>  (284) 
463.38

>  <AlogP>  (284) 
4.60

>  <Smiles>  (284) 
CC1(C)c2cc(N3CCC(N)CC3)c(Br)cc2C(=O)c2c1[nH]c1cc(C#N)ccc21

>  <Standard Type>  (284) 
IC50

>  <Standard Relation>  (284) 
'='

>  <Standard Units>  (284) 
nM

>  <Standard Value>  (284) 
0.168

>  <Assay ChEMBL ID>  (284) 
CHEMBL3887074

>  <Assay Description>  (284) 
Inhibition Assay: ALK-inhibiting activity was measured by following an activity of inhibiting phosphorylation by biotinylated peptide (EGPWLEEEEEAYGWMDF). For the detection of phosphorylation of the biotinylated peptide, time-resolved fluorescence measurement was performed using an anti-phosphorylated tyrosine antibody labeled with europium cryptate and streptavidin conjugated to XL665, i.e., an allophycocyanin derivative.

>  <BAO Format ID>  (284) 
BAO_0000357

>  <BAO Label>  (284) 
single protein format

>  <Assay Organism>  (284) 
Homo sapiens

>  <Target ChEMBL ID>  (284) 
CHEMBL4247

>  <Target Name>  (284) 
ALK tyrosine kinase receptor

>  <Target Organism>  (284) 
Homo sapiens

>  <Target Type>  (284) 
SINGLE PROTEIN

>  <Document ChEMBL ID>  (284) 
CHEMBL3886150

>  <Source Description>  (284) 
BindingDB Database

>  <Document Journal>  (284) 
nan

>  <Document Year>  (284) 
2015.0

>  <Active>  (284) 
1.0

>  <bits>  (284) 
<rdkit.DataStructs.cDataStructs.ExplicitBitVect object at 0x000002422F18B7D0>

>  <Group>  (284) 
G2

$$$$

     RDKit          2D

 39 44  0  0  0  0  0  0  0  0999 V2000
    7.3806   -9.4087    0.0000 C   0  0  0  0  0  0  0  0  0  0  0  0
    7.6925   -7.9415    0.0000 C   0  0  0  0  0  0  0  0  0  0  0  0
    8.0044   -6.4743    0.0000 C   0  0  0  0  0  0  0  0  0  0  0  0
    9.1597   -8.2534    0.0000 C   0  0  0  0  0  0  0  0  0  0  0  0
    6.2253   -7.6296    0.0000 O   0  0  0  0  0  0  0  0  0  0  0  0
    5.7618   -6.2030    0.0000 C   0  0  0  0  0  0  0  0  0  0  0  0
    6.7655   -5.0883    0.0000 O   0  0  0  0  0  0  0  0  0  0  0  0
    4.2945   -5.8912    0.0000 N   0  0  0  0  0  0  0  0  0  0  0  0
    3.2909   -7.0059    0.0000 C   0  0  0  0  0  0  0  0  0  0  0  0
    1.8236   -6.6940    0.0000 C   0  0  0  0  0  0  0  0  0  0  0  0
    1.3601   -5.2674    0.0000 C   0  0  0  0  0  0  0  0  0  0  0  0
    2.3638   -4.1527    0.0000 C   0  0  0  0  0  0  0  0  0  0  0  0
    3.8310   -4.4646    0.0000 C   0  0  0  0  0  0  0  0  0  0  0  0
    0.2454   -6.2711    0.0000 O   0  0  0  0  0  0  0  0  0  0  0  0
   -1.0537   -5.5211    0.0000 C   0  0  0  0  0  0  0  0  0  0  0  0
   -0.7418   -4.0539    0.0000 C   0  0  0  0  0  0  0  0  0  0  0  0
    0.7500   -3.8971    0.0000 C   0  0  0  0  0  0  0  0  0  0  0  0
    1.5000   -2.5981    0.0000 O   0  0  0  0  0  0  0  0  0  0  0  0
    0.7500   -1.2990    0.0000 C   0  0  0  0  0  0  0  0  0  0  0  0
    1.5000    0.0000    0.0000 C   0  0  0  0  0  0  0  0  0  0  0  0
    0.7500    1.2990    0.0000 C   0  0  0  0  0  0  0  0  0  0  0  0
   -0.7500    1.2990    0.0000 C   0  0  0  0  0  0  0  0  0  0  0  0
   -1.5000    0.0000    0.0000 C   0  0  0  0  0  0  0  0  0  0  0  0
   -0.7500   -1.2990    0.0000 C   0  0  0  0  0  0  0  0  0  0  0  0
   -3.0000    0.0000    0.0000 C   0  0  0  0  0  0  0  0  0  0  0  0
   -4.4095   -0.5130    0.0000 C   0  0  0  0  0  0  0  0  0  0  0  0
   -2.7395   -1.4772    0.0000 C   0  0  0  0  0  0  0  0  0  0  0  0
   -3.7500    1.2990    0.0000 C   0  0  0  0  0  0  0  0  0  0  0  0
   -5.2172    1.6109    0.0000 N   0  0  0  0  0  0  0  0  0  0  0  0
   -5.3740    3.1027    0.0000 C   0  0  0  0  0  0  0  0  0  0  0  0
   -6.5875    3.9844    0.0000 C   0  0  0  0  0  0  0  0  0  0  0  0
   -6.4307    5.4761    0.0000 C   0  0  0  0  0  0  0  0  0  0  0  0
   -7.6443    6.3578    0.0000 Br  0  0  0  0  0  0  0  0  0  0  0  0
   -5.0604    6.0863    0.0000 C   0  0  0  0  0  0  0  0  0  0  0  0
   -3.8469    5.2046    0.0000 C   0  0  0  0  0  0  0  0  0  0  0  0
   -4.0037    3.7128    0.0000 C   0  0  0  0  0  0  0  0  0  0  0  0
   -3.0000    2.5981    0.0000 C   0  0  0  0  0  0  0  0  0  0  0  0
   -1.5000    2.5981    0.0000 C   0  0  0  0  0  0  0  0  0  0  0  0
   -0.7500    3.8971    0.0000 O   0  0  0  0  0  0  0  0  0  0  0  0
  1  2  1  0
  2  3  1  0
  2  4  1  0
  2  5  1  0
  5  6  1  0
  6  7  2  0
  6  8  1  0
  8  9  1  0
  9 10  1  0
 10 11  1  0
 11 12  1  0
 12 13  1  0
 11 14  1  0
 14 15  1  0
 15 16  1  0
 16 17  1  0
 17 18  1  0
 18 19  1  0
 19 20  2  0
 20 21  1  0
 21 22  2  0
 22 23  1  0
 23 24  2  0
 23 25  1  0
 25 26  1  0
 25 27  1  0
 25 28  1  0
 28 29  1  0
 29 30  1  0
 30 31  2  0
 31 32  1  0
 32 33  1  0
 32 34  2  0
 34 35  1  0
 35 36  2  0
 36 37  1  0
 37 38  1  0
 38 39  2  0
 13  8  1  0
 24 19  1  0
 37 28  2  0
 17 11  1  0
 38 22  1  0
 36 30  1  0
M  END
>  <Compound_ID>  (285) 
CHEMBL3931176

>  <Molecule Name>  (285) 
nan

>  <Molecular Weight>  (285) 
595.53

>  <AlogP>  (285) 
6.74

>  <Smiles>  (285) 
CC(C)(C)OC(=O)N1CCC2(CC1)OCCC2Oc1ccc2c(c1)C(C)(C)c1[nH]c3cc(Br)ccc3c1C2=O

>  <Standard Type>  (285) 
IC50

>  <Standard Relation>  (285) 
'='

>  <Standard Units>  (285) 
nM

>  <Standard Value>  (285) 
19.51

>  <Assay ChEMBL ID>  (285) 
CHEMBL3887074

>  <Assay Description>  (285) 
Inhibition Assay: ALK-inhibiting activity was measured by following an activity of inhibiting phosphorylation by biotinylated peptide (EGPWLEEEEEAYGWMDF). For the detection of phosphorylation of the biotinylated peptide, time-resolved fluorescence measurement was performed using an anti-phosphorylated tyrosine antibody labeled with europium cryptate and streptavidin conjugated to XL665, i.e., an allophycocyanin derivative.

>  <BAO Format ID>  (285) 
BAO_0000357

>  <BAO Label>  (285) 
single protein format

>  <Assay Organism>  (285) 
Homo sapiens

>  <Target ChEMBL ID>  (285) 
CHEMBL4247

>  <Target Name>  (285) 
ALK tyrosine kinase receptor

>  <Target Organism>  (285) 
Homo sapiens

>  <Target Type>  (285) 
SINGLE PROTEIN

>  <Document ChEMBL ID>  (285) 
CHEMBL3886150

>  <Source Description>  (285) 
BindingDB Database

>  <Document Journal>  (285) 
nan

>  <Document Year>  (285) 
2015.0

>  <Active>  (285) 
1.0

>  <bits>  (285) 
<rdkit.DataStructs.cDataStructs.ExplicitBitVect object at 0x000002422F18B920>

>  <Group>  (285) 
G2

$$$$

     RDKit          2D

 37 42  0  0  0  0  0  0  0  0999 V2000
   -6.8516   -6.6578    0.0000 C   0  0  0  0  0  0  0  0  0  0  0  0
   -5.6381   -7.5395    0.0000 C   0  0  0  0  0  0  0  0  0  0  0  0
   -4.2677   -6.9294    0.0000 C   0  0  0  0  0  0  0  0  0  0  0  0
   -4.1110   -5.4376    0.0000 C   0  0  0  0  0  0  0  0  0  0  0  0
   -2.7406   -4.8275    0.0000 C   0  0  0  0  0  0  0  0  0  0  0  0
   -1.5271   -5.7092    0.0000 C   0  0  0  0  0  0  0  0  0  0  0  0
   -1.6839   -7.2010    0.0000 C   0  0  0  0  0  0  0  0  0  0  0  0
   -3.0542   -7.8111    0.0000 C   0  0  0  0  0  0  0  0  0  0  0  0
   -3.2110   -9.3029    0.0000 N   0  0  0  0  0  0  0  0  0  0  0  0
   -4.5813   -9.9130    0.0000 C   0  0  0  0  0  0  0  0  0  0  0  0
   -4.7381  -11.4047    0.0000 C   0  0  0  0  0  0  0  0  0  0  0  0
   -3.5246  -12.2864    0.0000 C   0  0  0  0  0  0  0  0  0  0  0  0
   -3.6814  -13.7782    0.0000 N   0  0  0  0  0  0  0  0  0  0  0  0
   -5.0517  -14.3883    0.0000 C   0  0  0  0  0  0  0  0  0  0  0  0
   -5.2085  -15.8801    0.0000 C   0  0  0  0  0  0  0  0  0  0  0  0
   -3.9950  -16.7618    0.0000 C   0  0  0  0  0  0  0  0  0  0  0  0
   -4.1518  -18.2536    0.0000 O   0  0  0  0  0  0  0  0  0  0  0  0
   -2.6247  -16.1517    0.0000 C   0  0  0  0  0  0  0  0  0  0  0  0
   -2.4679  -14.6599    0.0000 C   0  0  0  0  0  0  0  0  0  0  0  0
   -2.1543  -11.6763    0.0000 C   0  0  0  0  0  0  0  0  0  0  0  0
   -1.9975  -10.1845    0.0000 C   0  0  0  0  0  0  0  0  0  0  0  0
   -0.1568   -5.0991    0.0000 C   0  0  0  0  0  0  0  0  0  0  0  0
    1.3396   -4.9944    0.0000 C   0  0  0  0  0  0  0  0  0  0  0  0
    0.2061   -6.5545    0.0000 C   0  0  0  0  0  0  0  0  0  0  0  0
   -0.0000   -3.6073    0.0000 C   0  0  0  0  0  0  0  0  0  0  0  0
    1.2135   -2.7256    0.0000 N   0  0  0  0  0  0  0  0  0  0  0  0
    0.7500   -1.2990    0.0000 C   0  0  0  0  0  0  0  0  0  0  0  0
    1.5000    0.0000    0.0000 C   0  0  0  0  0  0  0  0  0  0  0  0
    0.7500    1.2990    0.0000 C   0  0  0  0  0  0  0  0  0  0  0  0
    1.5000    2.5981    0.0000 C   0  0  0  0  0  0  0  0  0  0  0  0
    2.2500    3.8971    0.0000 N   0  0  0  0  0  0  0  0  0  0  0  0
   -0.7500    1.2990    0.0000 C   0  0  0  0  0  0  0  0  0  0  0  0
   -1.5000    0.0000    0.0000 C   0  0  0  0  0  0  0  0  0  0  0  0
   -0.7500   -1.2990    0.0000 C   0  0  0  0  0  0  0  0  0  0  0  0
   -1.2135   -2.7256    0.0000 C   0  0  0  0  0  0  0  0  0  0  0  0
   -2.5838   -3.3357    0.0000 C   0  0  0  0  0  0  0  0  0  0  0  0
   -3.7974   -2.4540    0.0000 O   0  0  0  0  0  0  0  0  0  0  0  0
  1  2  1  0
  2  3  1  0
  3  4  2  0
  4  5  1  0
  5  6  2  0
  6  7  1  0
  7  8  2  0
  8  9  1  0
  9 10  1  0
 10 11  1  0
 11 12  1  0
 12 13  1  0
 13 14  1  0
 14 15  1  0
 15 16  1  0
 16 17  1  0
 16 18  1  0
 18 19  1  0
 12 20  1  0
 20 21  1  0
  6 22  1  0
 22 23  1  0
 22 24  1  0
 22 25  1  0
 25 26  1  0
 26 27  1  0
 27 28  2  0
 28 29  1  0
 29 30  1  0
 30 31  3  0
 29 32  2  0
 32 33  1  0
 33 34  2  0
 34 35  1  0
 35 36  1  0
 36 37  2  0
  8  3  1  0
 21  9  1  0
 35 25  2  0
 36  5  1  0
 19 13  1  0
 34 27  1  0
M  END
>  <Compound_ID>  (286) 
CHEMBL3929615

>  <Molecule Name>  (286) 
nan

>  <Molecular Weight>  (286) 
496.66

>  <AlogP>  (286) 
4.90

>  <Smiles>  (286) 
CCc1cc2c(cc1N1CCC(N3CCC(O)CC3)CC1)C(C)(C)c1[nH]c3cc(C#N)ccc3c1C2=O

>  <Standard Type>  (286) 
IC50

>  <Standard Relation>  (286) 
'='

>  <Standard Units>  (286) 
nM

>  <Standard Value>  (286) 
0.3

>  <Assay ChEMBL ID>  (286) 
CHEMBL3887074

>  <Assay Description>  (286) 
Inhibition Assay: ALK-inhibiting activity was measured by following an activity of inhibiting phosphorylation by biotinylated peptide (EGPWLEEEEEAYGWMDF). For the detection of phosphorylation of the biotinylated peptide, time-resolved fluorescence measurement was performed using an anti-phosphorylated tyrosine antibody labeled with europium cryptate and streptavidin conjugated to XL665, i.e., an allophycocyanin derivative.

>  <BAO Format ID>  (286) 
BAO_0000357

>  <BAO Label>  (286) 
single protein format

>  <Assay Organism>  (286) 
Homo sapiens

>  <Target ChEMBL ID>  (286) 
CHEMBL4247

>  <Target Name>  (286) 
ALK tyrosine kinase receptor

>  <Target Organism>  (286) 
Homo sapiens

>  <Target Type>  (286) 
SINGLE PROTEIN

>  <Document ChEMBL ID>  (286) 
CHEMBL3886150

>  <Source Description>  (286) 
BindingDB Database

>  <Document Journal>  (286) 
nan

>  <Document Year>  (286) 
2015.0

>  <Active>  (286) 
1.0

>  <bits>  (286) 
<rdkit.DataStructs.cDataStructs.ExplicitBitVect object at 0x000002422F18BBC0>

>  <Group>  (286) 
G2

$$$$

     RDKit          2D

 39 45  0  0  0  0  0  0  0  0999 V2000
    1.3396   -4.9944    0.0000 C   0  0  0  0  0  0  0  0  0  0  0  0
   -0.1568   -5.0991    0.0000 C   0  0  0  0  0  0  0  0  0  0  0  0
    0.2061   -6.5545    0.0000 C   0  0  0  0  0  0  0  0  0  0  0  0
   -1.5271   -5.7092    0.0000 C   0  0  0  0  0  0  0  0  0  0  0  0
   -1.6839   -7.2010    0.0000 C   0  0  0  0  0  0  0  0  0  0  0  0
   -3.0542   -7.8111    0.0000 C   0  0  0  0  0  0  0  0  0  0  0  0
   -3.2110   -9.3029    0.0000 N   0  0  0  0  0  0  0  0  0  0  0  0
   -4.5813   -9.9130    0.0000 C   0  0  0  0  0  0  0  0  0  0  0  0
   -4.7381  -11.4047    0.0000 C   0  0  0  0  0  0  0  0  0  0  0  0
   -3.5246  -12.2864    0.0000 N   0  0  0  0  0  0  0  0  0  0  0  0
   -3.6814  -13.7782    0.0000 C   0  0  0  0  0  0  0  0  0  0  0  0
   -4.8471  -14.7222    0.0000 C   0  0  0  0  0  0  0  0  0  0  0  0
   -3.9031  -15.8879    0.0000 C   0  0  0  0  0  0  0  0  0  0  0  0
   -2.7374  -14.9439    0.0000 C   0  0  0  0  0  0  0  0  0  0  0  0
   -2.1543  -11.6763    0.0000 C   0  0  0  0  0  0  0  0  0  0  0  0
   -1.9975  -10.1845    0.0000 C   0  0  0  0  0  0  0  0  0  0  0  0
   -4.2677   -6.9294    0.0000 C   0  0  0  0  0  0  0  0  0  0  0  0
   -5.6381   -7.5395    0.0000 O   0  0  0  0  0  0  0  0  0  0  0  0
   -6.8516   -6.6578    0.0000 C   0  0  0  0  0  0  0  0  0  0  0  0
   -6.6948   -5.1660    0.0000 C   0  0  0  0  0  0  0  0  0  0  0  0
   -7.9083   -4.2844    0.0000 C   0  0  0  0  0  0  0  0  0  0  0  0
   -9.2786   -4.8945    0.0000 O   0  0  0  0  0  0  0  0  0  0  0  0
   -9.4354   -6.3863    0.0000 C   0  0  0  0  0  0  0  0  0  0  0  0
   -8.2219   -7.2679    0.0000 C   0  0  0  0  0  0  0  0  0  0  0  0
   -4.1110   -5.4376    0.0000 C   0  0  0  0  0  0  0  0  0  0  0  0
   -2.7406   -4.8275    0.0000 C   0  0  0  0  0  0  0  0  0  0  0  0
   -2.5838   -3.3357    0.0000 C   0  0  0  0  0  0  0  0  0  0  0  0
   -3.7974   -2.4540    0.0000 O   0  0  0  0  0  0  0  0  0  0  0  0
   -1.2135   -2.7256    0.0000 C   0  0  0  0  0  0  0  0  0  0  0  0
   -0.0000   -3.6073    0.0000 C   0  0  0  0  0  0  0  0  0  0  0  0
    1.2135   -2.7256    0.0000 N   0  0  0  0  0  0  0  0  0  0  0  0
    0.7500   -1.2990    0.0000 C   0  0  0  0  0  0  0  0  0  0  0  0
    1.5000    0.0000    0.0000 C   0  0  0  0  0  0  0  0  0  0  0  0
    0.7500    1.2990    0.0000 C   0  0  0  0  0  0  0  0  0  0  0  0
    1.5000    2.5981    0.0000 C   0  0  0  0  0  0  0  0  0  0  0  0
    2.2500    3.8971    0.0000 N   0  0  0  0  0  0  0  0  0  0  0  0
   -0.7500    1.2990    0.0000 C   0  0  0  0  0  0  0  0  0  0  0  0
   -1.5000    0.0000    0.0000 C   0  0  0  0  0  0  0  0  0  0  0  0
   -0.7500   -1.2990    0.0000 C   0  0  0  0  0  0  0  0  0  0  0  0
  1  2  1  0
  2  3  1  0
  2  4  1  0
  4  5  2  0
  5  6  1  0
  6  7  1  0
  7  8  1  0
  8  9  1  0
  9 10  1  0
 10 11  1  0
 11 12  1  0
 12 13  1  0
 13 14  1  0
 10 15  1  0
 15 16  1  0
  6 17  2  0
 17 18  1  0
 18 19  1  0
 19 20  1  0
 20 21  1  0
 21 22  1  0
 22 23  1  0
 23 24  1  0
 17 25  1  0
 25 26  2  0
 26 27  1  0
 27 28  2  0
 27 29  1  0
 29 30  2  0
 30 31  1  0
 31 32  1  0
 32 33  2  0
 33 34  1  0
 34 35  1  0
 35 36  3  0
 34 37  2  0
 37 38  1  0
 38 39  2  0
 30  2  1  0
 39 32  1  0
 26  4  1  0
 39 29  1  0
 16  7  1  0
 24 19  1  0
 14 11  1  0
M  END
>  <Compound_ID>  (287) 
CHEMBL3908067

>  <Molecule Name>  (287) 
nan

>  <Molecular Weight>  (287) 
524.67

>  <AlogP>  (287) 
5.14

>  <Smiles>  (287) 
CC1(C)c2cc(N3CCN(C4CCC4)CC3)c(OC3CCOCC3)cc2C(=O)c2c1[nH]c1cc(C#N)ccc21

>  <Standard Type>  (287) 
IC50

>  <Standard Relation>  (287) 
'='

>  <Standard Units>  (287) 
nM

>  <Standard Value>  (287) 
1.5

>  <Assay ChEMBL ID>  (287) 
CHEMBL3887074

>  <Assay Description>  (287) 
Inhibition Assay: ALK-inhibiting activity was measured by following an activity of inhibiting phosphorylation by biotinylated peptide (EGPWLEEEEEAYGWMDF). For the detection of phosphorylation of the biotinylated peptide, time-resolved fluorescence measurement was performed using an anti-phosphorylated tyrosine antibody labeled with europium cryptate and streptavidin conjugated to XL665, i.e., an allophycocyanin derivative.

>  <BAO Format ID>  (287) 
BAO_0000357

>  <BAO Label>  (287) 
single protein format

>  <Assay Organism>  (287) 
Homo sapiens

>  <Target ChEMBL ID>  (287) 
CHEMBL4247

>  <Target Name>  (287) 
ALK tyrosine kinase receptor

>  <Target Organism>  (287) 
Homo sapiens

>  <Target Type>  (287) 
SINGLE PROTEIN

>  <Document ChEMBL ID>  (287) 
CHEMBL3886150

>  <Source Description>  (287) 
BindingDB Database

>  <Document Journal>  (287) 
nan

>  <Document Year>  (287) 
2015.0

>  <Active>  (287) 
1.0

>  <bits>  (287) 
<rdkit.DataStructs.cDataStructs.ExplicitBitVect object at 0x000002422F188C80>

>  <Group>  (287) 
G2

$$$$

     RDKit          2D

 43 47  0  0  0  0  0  0  0  0999 V2000
  -10.5759   -3.0359    0.0000 C   0  0  0  0  0  0  0  0  0  0  0  0
   -9.4612   -4.0396    0.0000 C   0  0  0  0  0  0  0  0  0  0  0  0
   -9.7730   -5.5068    0.0000 C   0  0  0  0  0  0  0  0  0  0  0  0
   -8.0346   -3.5760    0.0000 N   0  0  0  0  0  0  0  0  0  0  0  0
   -6.9199   -4.5797    0.0000 C   0  0  0  0  0  0  0  0  0  0  0  0
   -7.2317   -6.0469    0.0000 O   0  0  0  0  0  0  0  0  0  0  0  0
   -5.4933   -4.1162    0.0000 C   0  0  0  0  0  0  0  0  0  0  0  0
   -5.1814   -2.6490    0.0000 C   0  0  0  0  0  0  0  0  0  0  0  0
   -3.7548   -2.1855    0.0000 C   0  0  0  0  0  0  0  0  0  0  0  0
   -2.6401   -3.1891    0.0000 C   0  0  0  0  0  0  0  0  0  0  0  0
   -1.2135   -2.7256    0.0000 N   0  0  0  0  0  0  0  0  0  0  0  0
   -0.0000   -3.6073    0.0000 C   0  0  0  0  0  0  0  0  0  0  0  0
   -0.0000   -5.1073    0.0000 N   0  0  0  0  0  0  0  0  0  0  0  0
    1.2990   -5.8573    0.0000 C   0  0  0  0  0  0  0  0  0  0  0  0
    2.5981   -5.1073    0.0000 O   0  0  0  0  0  0  0  0  0  0  0  0
    1.2990   -7.3573    0.0000 C   0  0  0  0  0  0  0  0  0  0  0  0
   -0.0000   -8.1073    0.0000 C   0  0  0  0  0  0  0  0  0  0  0  0
   -0.0000   -9.6073    0.0000 C   0  0  0  0  0  0  0  0  0  0  0  0
    1.2990  -10.3573    0.0000 C   0  0  0  0  0  0  0  0  0  0  0  0
    1.2990  -11.8573    0.0000 F   0  0  0  0  0  0  0  0  0  0  0  0
    2.5981   -9.6073    0.0000 C   0  0  0  0  0  0  0  0  0  0  0  0
    3.8971  -10.3573    0.0000 F   0  0  0  0  0  0  0  0  0  0  0  0
    2.5981   -8.1073    0.0000 C   0  0  0  0  0  0  0  0  0  0  0  0
    1.2135   -2.7256    0.0000 N   0  0  0  0  0  0  0  0  0  0  0  0
    0.7500   -1.2990    0.0000 C   0  0  0  0  0  0  0  0  0  0  0  0
    1.5000    0.0000    0.0000 C   0  0  0  0  0  0  0  0  0  0  0  0
    0.7500    1.2990    0.0000 C   0  0  0  0  0  0  0  0  0  0  0  0
   -0.7500    1.2990    0.0000 C   0  0  0  0  0  0  0  0  0  0  0  0
   -1.5000    2.5981    0.0000 C   0  0  0  0  0  0  0  0  0  0  0  0
   -0.7500    3.8971    0.0000 N   0  0  0  0  0  0  0  0  0  0  0  0
    0.7500    3.8971    0.0000 C   0  0  0  0  0  0  0  0  0  0  0  0
    1.5000    5.1962    0.0000 C   0  0  0  0  0  0  0  0  0  0  0  0
    0.7500    6.4952    0.0000 C   0  0  0  0  0  0  0  0  0  0  0  0
    1.5000    7.7942    0.0000 C   0  0  0  0  0  0  0  0  0  0  0  0
    0.2010    8.5442    0.0000 C   0  0  0  0  0  0  0  0  0  0  0  0
    2.7990    7.0442    0.0000 C   0  0  0  0  0  0  0  0  0  0  0  0
    2.2500    9.0933    0.0000 O   0  0  0  0  0  0  0  0  0  0  0  0
   -0.7500    6.4952    0.0000 C   0  0  0  0  0  0  0  0  0  0  0  0
   -1.5000    5.1962    0.0000 C   0  0  0  0  0  0  0  0  0  0  0  0
   -1.5000    0.0000    0.0000 C   0  0  0  0  0  0  0  0  0  0  0  0
   -0.7500   -1.2990    0.0000 C   0  0  0  0  0  0  0  0  0  0  0  0
   -2.9520   -4.6564    0.0000 C   0  0  0  0  0  0  0  0  0  0  0  0
   -4.3786   -5.1199    0.0000 C   0  0  0  0  0  0  0  0  0  0  0  0
  1  2  1  0
  2  3  1  0
  2  4  1  0
  4  5  1  0
  5  6  2  0
  7  5  1  1
  7  8  1  0
  8  9  1  0
  9 10  1  0
 10 11  1  1
 11 12  1  0
 12 13  2  0
 13 14  1  0
 14 15  2  0
 14 16  1  0
 16 17  2  0
 17 18  1  0
 18 19  2  0
 19 20  1  0
 19 21  1  0
 21 22  1  0
 21 23  2  0
 12 24  1  0
 24 25  1  0
 25 26  2  0
 26 27  1  0
 27 28  2  0
 28 29  1  0
 29 30  1  0
 30 31  1  0
 31 32  1  0
 32 33  1  0
 33 34  1  0
 34 35  1  0
 34 36  1  0
 34 37  1  0
 33 38  1  0
 38 39  1  0
 28 40  1  0
 40 41  2  0
 10 42  1  0
 42 43  1  0
 43  7  1  0
 41 11  1  0
 23 16  1  0
 41 25  1  0
 39 30  1  0
M  END
>  <Compound_ID>  (288) 
CHEMBL2172319

>  <Molecule Name>  (288) 
nan

>  <Molecular Weight>  (288) 
595.74

>  <AlogP>  (288) 
5.23

>  <Smiles>  (288) 
CC(C)NC(=O)[C@H]1CC[C@@H](n2/c(=N/C(=O)c3ccc(F)c(F)c3)[nH]c3ccc(CN4CCC(C(C)(C)O)CC4)cc32)CC1

>  <Standard Type>  (288) 
IC50

>  <Standard Relation>  (288) 
'='

>  <Standard Units>  (288) 
nM

>  <Standard Value>  (288) 
2.0

>  <Assay ChEMBL ID>  (288) 
CHEMBL2176371

>  <Assay Description>  (288) 
Inhibition of ALK enzyme

>  <BAO Format ID>  (288) 
BAO_0000357

>  <BAO Label>  (288) 
single protein format

>  <Assay Organism>  (288) 
None

>  <Target ChEMBL ID>  (288) 
CHEMBL4247

>  <Target Name>  (288) 
ALK tyrosine kinase receptor

>  <Target Organism>  (288) 
Homo sapiens

>  <Target Type>  (288) 
SINGLE PROTEIN

>  <Document ChEMBL ID>  (288) 
CHEMBL2169770

>  <Source Description>  (288) 
Scientific Literature

>  <Document Journal>  (288) 
J Med Chem

>  <Document Year>  (288) 
2012.0

>  <Active>  (288) 
1.0

>  <bits>  (288) 
<rdkit.DataStructs.cDataStructs.ExplicitBitVect object at 0x000002422F1882E0>

>  <Group>  (288) 
G2

$$$$

     RDKit          2D

 50 55  0  0  0  0  0  0  0  0999 V2000
    0.5271    8.0861    0.0000 C   0  0  0  0  0  0  0  0  0  0  0  0
   -0.8995    7.6226    0.0000 C   0  0  0  0  0  0  0  0  0  0  0  0
   -1.2114    6.1554    0.0000 C   0  0  0  0  0  0  0  0  0  0  0  0
   -2.6380    5.6918    0.0000 C   0  0  0  0  0  0  0  0  0  0  0  0
   -2.9499    4.2246    0.0000 N   0  0  0  0  0  0  0  0  0  0  0  0
   -1.8351    3.2209    0.0000 C   0  0  0  0  0  0  0  0  0  0  0  0
   -0.4086    3.6844    0.0000 N   0  0  0  0  0  0  0  0  0  0  0  0
    0.7062    2.6807    0.0000 C   0  0  0  0  0  0  0  0  0  0  0  0
    2.1328    3.1443    0.0000 N   0  0  0  0  0  0  0  0  0  0  0  0
    2.4446    4.6115    0.0000 C   0  0  0  0  0  0  0  0  0  0  0  0
    1.3299    5.6152    0.0000 C   0  0  0  0  0  0  0  0  0  0  0  0
    1.6418    7.0824    0.0000 C   0  0  0  0  0  0  0  0  0  0  0  0
    3.0684    7.5459    0.0000 C   0  0  0  0  0  0  0  0  0  0  0  0
    4.1831    6.5422    0.0000 C   0  0  0  0  0  0  0  0  0  0  0  0
    3.8712    5.0750    0.0000 C   0  0  0  0  0  0  0  0  0  0  0  0
    4.9859    4.0713    0.0000 S   0  0  0  0  0  0  0  0  0  0  0  0
    3.9822    2.9566    0.0000 O   0  0  0  0  0  0  0  0  0  0  0  0
    5.9896    5.1860    0.0000 O   0  0  0  0  0  0  0  0  0  0  0  0
    6.1006    3.0676    0.0000 C   0  0  0  0  0  0  0  0  0  0  0  0
    5.7888    1.6004    0.0000 C   0  0  0  0  0  0  0  0  0  0  0  0
    7.5272    3.5312    0.0000 C   0  0  0  0  0  0  0  0  0  0  0  0
    0.3943    1.2135    0.0000 C   0  0  0  0  0  0  0  0  0  0  0  0
    1.2760    0.0000    0.0000 C   0  0  0  0  0  0  0  0  0  0  0  0
    2.7760    0.0000    0.0000 C   0  0  0  0  0  0  0  0  0  0  0  0
    0.3943   -1.2135    0.0000 N   0  0  0  0  0  0  0  0  0  0  0  0
   -1.0323   -0.7500    0.0000 N   0  0  0  0  0  0  0  0  0  0  0  0
   -1.0323    0.7500    0.0000 C   0  0  0  0  0  0  0  0  0  0  0  0
   -2.1470    1.7537    0.0000 N   0  0  0  0  0  0  0  0  0  0  0  0
   -3.7527    6.6955    0.0000 C   0  0  0  0  0  0  0  0  0  0  0  0
   -5.1793    6.2320    0.0000 O   0  0  0  0  0  0  0  0  0  0  0  0
   -6.2940    7.2357    0.0000 C   0  0  0  0  0  0  0  0  0  0  0  0
   -7.7206    6.7722    0.0000 C   0  0  0  0  0  0  0  0  0  0  0  0
   -5.9821    8.7029    0.0000 C   0  0  0  0  0  0  0  0  0  0  0  0
   -3.4408    8.1628    0.0000 C   0  0  0  0  0  0  0  0  0  0  0  0
   -2.0143    8.6263    0.0000 C   0  0  0  0  0  0  0  0  0  0  0  0
   -1.7024   10.0935    0.0000 C   0  0  0  0  0  0  0  0  0  0  0  0
   -0.2758   10.5570    0.0000 C   0  0  0  0  0  0  0  0  0  0  0  0
    0.0361   12.0242    0.0000 C   0  0  0  0  0  0  0  0  0  0  0  0
   -1.0786   13.0279    0.0000 N   0  0  0  0  0  0  0  0  0  0  0  0
   -0.7668   14.4952    0.0000 C   0  0  0  0  0  0  0  0  0  0  0  0
   -1.8815   15.4989    0.0000 O   0  0  0  0  0  0  0  0  0  0  0  0
    0.6598   14.9587    0.0000 C   0  0  0  0  0  0  0  0  0  0  0  0
    0.9717   16.4259    0.0000 N   0  0  0  0  0  0  0  0  0  0  0  0
    2.3983   16.8894    0.0000 C   0  0  0  0  0  0  0  0  0  0  0  0
    2.7101   18.3567    0.0000 C   0  0  0  0  0  0  0  0  0  0  0  0
    1.5954   19.3604    0.0000 O   0  0  0  0  0  0  0  0  0  0  0  0
    0.1688   18.8968    0.0000 C   0  0  0  0  0  0  0  0  0  0  0  0
   -0.1430   17.4296    0.0000 C   0  0  0  0  0  0  0  0  0  0  0  0
   -2.5052   12.5644    0.0000 C   0  0  0  0  0  0  0  0  0  0  0  0
   -2.8171   11.0972    0.0000 C   0  0  0  0  0  0  0  0  0  0  0  0
  1  2  1  0
  2  3  2  0
  3  4  1  0
  4  5  1  0
  5  6  1  0
  6  7  1  0
  7  8  2  0
  8  9  1  0
  9 10  1  0
 10 11  2  0
 11 12  1  0
 12 13  2  0
 13 14  1  0
 14 15  2  0
 15 16  1  0
 16 17  2  0
 16 18  2  0
 16 19  1  0
 19 20  1  0
 19 21  1  0
  8 22  1  0
 22 23  2  0
 23 24  1  0
 23 25  1  0
 25 26  1  0
 26 27  2  0
 27 28  1  0
  4 29  2  0
 29 30  1  0
 30 31  1  0
 31 32  1  0
 31 33  1  0
 29 34  1  0
 34 35  2  0
 35 36  1  0
 36 37  1  0
 37 38  1  0
 38 39  1  0
 39 40  1  0
 40 41  2  0
 40 42  1  0
 42 43  1  0
 43 44  1  0
 44 45  1  0
 45 46  1  0
 46 47  1  0
 47 48  1  0
 39 49  1  0
 49 50  1  0
 35  2  1  0
 50 36  1  0
 28  6  2  0
 48 43  1  0
 15 10  1  0
 27 22  1  0
M  END
>  <Compound_ID>  (289) 
CHEMBL3651851

>  <Molecule Name>  (289) 
nan

>  <Molecular Weight>  (289) 
704.9

>  <AlogP>  (289) 
5.46

>  <Smiles>  (289) 
Cc1cc(Nc2nc(Nc3ccccc3S(=O)(=O)C(C)C)c3c(C)[nH]nc3n2)c(OC(C)C)cc1C1CCN(C(=O)CN2CCOCC2)CC1

>  <Standard Type>  (289) 
IC50

>  <Standard Relation>  (289) 
'='

>  <Standard Units>  (289) 
nM

>  <Standard Value>  (289) 
41.0

>  <Assay ChEMBL ID>  (289) 
CHEMBL3705165

>  <Assay Description>  (289) 
Enzyme Assay: The inhibition of ALK tyrosine kinase activity may be demonstrated using known methods, for example using the recombinant kinase domain of the ALK in analogy to the VEGF-R kinase assay described in J. Wood et al. Cancer Res. 60, 2178-2189 (2000).

>  <BAO Format ID>  (289) 
BAO_0000357

>  <BAO Label>  (289) 
single protein format

>  <Assay Organism>  (289) 
Homo sapiens

>  <Target ChEMBL ID>  (289) 
CHEMBL4247

>  <Target Name>  (289) 
ALK tyrosine kinase receptor

>  <Target Organism>  (289) 
Homo sapiens

>  <Target Type>  (289) 
SINGLE PROTEIN

>  <Document ChEMBL ID>  (289) 
CHEMBL3638924

>  <Source Description>  (289) 
BindingDB Database

>  <Document Journal>  (289) 
nan

>  <Document Year>  (289) 
2013.0

>  <Active>  (289) 
1.0

>  <bits>  (289) 
<rdkit.DataStructs.cDataStructs.ExplicitBitVect object at 0x000002422F188190>

>  <Group>  (289) 
G2

$$$$

     RDKit          2D

 35 40  0  0  0  0  0  0  0  0999 V2000
   -6.8516   -6.6578    0.0000 C   0  0  0  0  0  0  0  0  0  0  0  0
   -5.6381   -7.5395    0.0000 C   0  0  0  0  0  0  0  0  0  0  0  0
   -4.2677   -6.9294    0.0000 C   0  0  0  0  0  0  0  0  0  0  0  0
   -4.1110   -5.4376    0.0000 C   0  0  0  0  0  0  0  0  0  0  0  0
   -2.7406   -4.8275    0.0000 C   0  0  0  0  0  0  0  0  0  0  0  0
   -1.5271   -5.7092    0.0000 C   0  0  0  0  0  0  0  0  0  0  0  0
   -1.6839   -7.2010    0.0000 C   0  0  0  0  0  0  0  0  0  0  0  0
   -3.0542   -7.8111    0.0000 C   0  0  0  0  0  0  0  0  0  0  0  0
   -3.2110   -9.3029    0.0000 N   0  0  0  0  0  0  0  0  0  0  0  0
   -4.5813   -9.9130    0.0000 C   0  0  0  0  0  0  0  0  0  0  0  0
   -4.7381  -11.4047    0.0000 C   0  0  0  0  0  0  0  0  0  0  0  0
   -3.5246  -12.2864    0.0000 C   0  0  0  0  0  0  0  0  0  0  0  0
   -3.6814  -13.7782    0.0000 N   0  0  0  0  0  0  0  0  0  0  0  0
   -5.0517  -14.3883    0.0000 C   0  0  0  0  0  0  0  0  0  0  0  0
   -5.2085  -15.8801    0.0000 C   0  0  0  0  0  0  0  0  0  0  0  0
   -4.5984  -17.2504    0.0000 C   0  0  0  0  0  0  0  0  0  0  0  0
   -6.0902  -17.0936    0.0000 C   0  0  0  0  0  0  0  0  0  0  0  0
   -2.1543  -11.6763    0.0000 C   0  0  0  0  0  0  0  0  0  0  0  0
   -1.9975  -10.1845    0.0000 C   0  0  0  0  0  0  0  0  0  0  0  0
   -0.1568   -5.0991    0.0000 C   0  0  0  0  0  0  0  0  0  0  0  0
    1.3396   -4.9944    0.0000 C   0  0  0  0  0  0  0  0  0  0  0  0
    0.2061   -6.5545    0.0000 C   0  0  0  0  0  0  0  0  0  0  0  0
   -0.0000   -3.6073    0.0000 C   0  0  0  0  0  0  0  0  0  0  0  0
    1.2135   -2.7256    0.0000 N   0  0  0  0  0  0  0  0  0  0  0  0
    0.7500   -1.2990    0.0000 C   0  0  0  0  0  0  0  0  0  0  0  0
    1.5000    0.0000    0.0000 C   0  0  0  0  0  0  0  0  0  0  0  0
    0.7500    1.2990    0.0000 C   0  0  0  0  0  0  0  0  0  0  0  0
    1.5000    2.5981    0.0000 C   0  0  0  0  0  0  0  0  0  0  0  0
    2.2500    3.8971    0.0000 N   0  0  0  0  0  0  0  0  0  0  0  0
   -0.7500    1.2990    0.0000 C   0  0  0  0  0  0  0  0  0  0  0  0
   -1.5000    0.0000    0.0000 C   0  0  0  0  0  0  0  0  0  0  0  0
   -0.7500   -1.2990    0.0000 C   0  0  0  0  0  0  0  0  0  0  0  0
   -1.2135   -2.7256    0.0000 C   0  0  0  0  0  0  0  0  0  0  0  0
   -2.5838   -3.3357    0.0000 C   0  0  0  0  0  0  0  0  0  0  0  0
   -3.7974   -2.4540    0.0000 O   0  0  0  0  0  0  0  0  0  0  0  0
  1  2  1  0
  2  3  1  0
  3  4  2  0
  4  5  1  0
  5  6  2  0
  6  7  1  0
  7  8  2  0
  8  9  1  0
  9 10  1  0
 10 11  1  0
 11 12  1  0
 12 13  1  0
 13 14  1  0
 14 15  1  0
 15 16  1  0
 16 17  1  0
 12 18  1  0
 18 19  1  0
  6 20  1  0
 20 21  1  0
 20 22  1  0
 20 23  1  0
 23 24  1  0
 24 25  1  0
 25 26  2  0
 26 27  1  0
 27 28  1  0
 28 29  3  0
 27 30  2  0
 30 31  1  0
 31 32  2  0
 32 33  1  0
 33 34  1  0
 34 35  2  0
  8  3  1  0
 19  9  1  0
 33 23  2  0
 34  5  1  0
 17 15  1  0
 32 25  1  0
M  END
>  <Compound_ID>  (290) 
CHEMBL3981662

>  <Molecule Name>  (290) 
nan

>  <Molecular Weight>  (290) 
466.63

>  <AlogP>  (290) 
5.44

>  <Smiles>  (290) 
CCc1cc2c(cc1N1CCC(NCC3CC3)CC1)C(C)(C)c1[nH]c3cc(C#N)ccc3c1C2=O

>  <Standard Type>  (290) 
IC50

>  <Standard Relation>  (290) 
'='

>  <Standard Units>  (290) 
nM

>  <Standard Value>  (290) 
0.813

>  <Assay ChEMBL ID>  (290) 
CHEMBL3887074

>  <Assay Description>  (290) 
Inhibition Assay: ALK-inhibiting activity was measured by following an activity of inhibiting phosphorylation by biotinylated peptide (EGPWLEEEEEAYGWMDF). For the detection of phosphorylation of the biotinylated peptide, time-resolved fluorescence measurement was performed using an anti-phosphorylated tyrosine antibody labeled with europium cryptate and streptavidin conjugated to XL665, i.e., an allophycocyanin derivative.

>  <BAO Format ID>  (290) 
BAO_0000357

>  <BAO Label>  (290) 
single protein format

>  <Assay Organism>  (290) 
Homo sapiens

>  <Target ChEMBL ID>  (290) 
CHEMBL4247

>  <Target Name>  (290) 
ALK tyrosine kinase receptor

>  <Target Organism>  (290) 
Homo sapiens

>  <Target Type>  (290) 
SINGLE PROTEIN

>  <Document ChEMBL ID>  (290) 
CHEMBL3886150

>  <Source Description>  (290) 
BindingDB Database

>  <Document Journal>  (290) 
nan

>  <Document Year>  (290) 
2015.0

>  <Active>  (290) 
1.0

>  <bits>  (290) 
<rdkit.DataStructs.cDataStructs.ExplicitBitVect object at 0x000002422F18A7A0>

>  <Group>  (290) 
G2

$$$$

     RDKit          2D

 33 37  0  0  0  0  0  0  0  0999 V2000
   11.0591   -7.6179    0.0000 C   0  0  0  0  0  0  0  0  0  0  0  0
   10.9023   -6.1262    0.0000 C   0  0  0  0  0  0  0  0  0  0  0  0
    9.5320   -5.5161    0.0000 O   0  0  0  0  0  0  0  0  0  0  0  0
    8.3185   -6.3977    0.0000 C   0  0  0  0  0  0  0  0  0  0  0  0
    6.9482   -5.7876    0.0000 C   0  0  0  0  0  0  0  0  0  0  0  0
    5.7346   -6.6693    0.0000 C   0  0  0  0  0  0  0  0  0  0  0  0
    4.3643   -6.0592    0.0000 C   0  0  0  0  0  0  0  0  0  0  0  0
    3.0653   -6.8092    0.0000 C   0  0  0  0  0  0  0  0  0  0  0  0
    1.9506   -5.8055    0.0000 N   0  0  0  0  0  0  0  0  0  0  0  0
    2.5607   -4.4352    0.0000 N   0  0  0  0  0  0  0  0  0  0  0  0
    1.8107   -3.1362    0.0000 C   0  0  0  0  0  0  0  0  0  0  0  0
    2.1989   -1.6873    0.0000 C   0  0  0  0  0  0  0  0  0  0  0  0
    0.7500   -1.2990    0.0000 C   0  0  0  0  0  0  0  0  0  0  0  0
    1.5000    0.0000    0.0000 C   0  0  0  0  0  0  0  0  0  0  0  0
    0.7500    1.2990    0.0000 C   0  0  0  0  0  0  0  0  0  0  0  0
   -0.7500    1.2990    0.0000 C   0  0  0  0  0  0  0  0  0  0  0  0
   -1.5000    0.0000    0.0000 N   0  0  0  0  0  0  0  0  0  0  0  0
   -0.7500   -1.2990    0.0000 C   0  0  0  0  0  0  0  0  0  0  0  0
    0.3618   -2.7479    0.0000 C   0  0  0  0  0  0  0  0  0  0  0  0
    4.0524   -4.5920    0.0000 C   0  0  0  0  0  0  0  0  0  0  0  0
    5.8914   -8.1611    0.0000 C   0  0  0  0  0  0  0  0  0  0  0  0
    7.2617   -8.7712    0.0000 N   0  0  0  0  0  0  0  0  0  0  0  0
    8.4753   -7.8895    0.0000 C   0  0  0  0  0  0  0  0  0  0  0  0
    9.8456   -8.4996    0.0000 N   0  0  0  0  0  0  0  0  0  0  0  0
   12.1158   -5.2445    0.0000 C   0  0  0  0  0  0  0  0  0  0  0  0
   11.9590   -3.7527    0.0000 C   0  0  0  0  0  0  0  0  0  0  0  0
   10.5887   -3.1426    0.0000 Cl  0  0  0  0  0  0  0  0  0  0  0  0
   13.1726   -2.8710    0.0000 C   0  0  0  0  0  0  0  0  0  0  0  0
   14.5429   -3.4811    0.0000 C   0  0  0  0  0  0  0  0  0  0  0  0
   14.6997   -4.9729    0.0000 C   0  0  0  0  0  0  0  0  0  0  0  0
   16.0700   -5.5830    0.0000 F   0  0  0  0  0  0  0  0  0  0  0  0
   13.4862   -5.8546    0.0000 C   0  0  0  0  0  0  0  0  0  0  0  0
   13.6430   -7.3464    0.0000 Cl  0  0  0  0  0  0  0  0  0  0  0  0
  2  1  1  1
  2  3  1  0
  3  4  1  0
  4  5  2  0
  5  6  1  0
  6  7  1  0
  7  8  1  0
  8  9  2  0
  9 10  1  0
 10 11  1  0
 11 12  1  0
 12 13  1  0
 13 14  1  0
 14 15  1  0
 15 16  1  0
 16 17  1  0
 17 18  1  0
 13 19  1  0
 10 20  1  0
  6 21  2  0
 21 22  1  0
 22 23  2  0
 23 24  1  0
  2 25  1  0
 25 26  2  0
 26 27  1  0
 26 28  1  0
 28 29  2  0
 29 30  1  0
 30 31  1  0
 30 32  2  0
 32 33  1  0
 23  4  1  0
 32 25  1  0
 20  7  2  0
 19 11  1  0
 18 13  1  0
M  END
>  <Compound_ID>  (291) 
CHEMBL4114311

>  <Molecule Name>  (291) 
nan

>  <Molecular Weight>  (291) 
490.41

>  <AlogP>  (291) 
5.82

>  <Smiles>  (291) 
C[C@@H](Oc1cc(-c2cnn(C3CC4(CCCNC4)C3)c2)cnc1N)c1c(Cl)ccc(F)c1Cl

>  <Standard Type>  (291) 
IC50

>  <Standard Relation>  (291) 
'='

>  <Standard Units>  (291) 
nM

>  <Standard Value>  (291) 
1.92

>  <Assay ChEMBL ID>  (291) 
CHEMBL3887797

>  <Assay Description>  (291) 
Inhibition Assay: The inhibitory activities of compounds of Formula I were assay at Reaction Biology Corporation, One Great Valley Parkway, Malvern, Pa., USA. Human ALK and cMet enzymes were used and the substrate was a peptide substrate, poly[Glu:Tyr] (4:1) at a concentration of 0.2 mg/ml. The ATP concentration for the assay was 10 uM and Staurosporine was used as a standardwith an IC50 of 2.3 nM, and 75 nM, respectively for ALK and cMet.

>  <BAO Format ID>  (291) 
BAO_0000357

>  <BAO Label>  (291) 
single protein format

>  <Assay Organism>  (291) 
Homo sapiens

>  <Target ChEMBL ID>  (291) 
CHEMBL4247

>  <Target Name>  (291) 
ALK tyrosine kinase receptor

>  <Target Organism>  (291) 
Homo sapiens

>  <Target Type>  (291) 
SINGLE PROTEIN

>  <Document ChEMBL ID>  (291) 
CHEMBL3886454

>  <Source Description>  (291) 
BindingDB Database

>  <Document Journal>  (291) 
nan

>  <Document Year>  (291) 
2016.0

>  <Active>  (291) 
1.0

>  <bits>  (291) 
<rdkit.DataStructs.cDataStructs.ExplicitBitVect object at 0x000002422F18A730>

>  <Group>  (291) 
G2

$$$$

     RDKit          2D

 31 35  0  0  0  0  0  0  0  0999 V2000
   -4.0819    0.6918    0.0000 C   0  0  0  0  0  0  0  0  0  0  0  0
   -2.9672   -0.3119    0.0000 N   0  0  0  0  0  0  0  0  0  0  0  0
   -3.1240   -1.8037    0.0000 C   0  0  0  0  0  0  0  0  0  0  0  0
   -1.7537   -2.4138    0.0000 C   0  0  0  0  0  0  0  0  0  0  0  0
   -1.4418   -3.8810    0.0000 C   0  0  0  0  0  0  0  0  0  0  0  0
   -2.5565   -4.8847    0.0000 C   0  0  0  0  0  0  0  0  0  0  0  0
   -4.0238   -4.5728    0.0000 C   0  0  0  0  0  0  0  0  0  0  0  0
   -4.6339   -3.2025    0.0000 O   0  0  0  0  0  0  0  0  0  0  0  0
   -4.7738   -5.8718    0.0000 N   0  0  0  0  0  0  0  0  0  0  0  0
   -3.7701   -6.9866    0.0000 N   0  0  0  0  0  0  0  0  0  0  0  0
   -2.3998   -6.3765    0.0000 C   0  0  0  0  0  0  0  0  0  0  0  0
   -1.1007   -7.1265    0.0000 C   0  0  0  0  0  0  0  0  0  0  0  0
    0.2696   -6.5164    0.0000 N   0  0  0  0  0  0  0  0  0  0  0  0
    1.2733   -7.6311    0.0000 C   0  0  0  0  0  0  0  0  0  0  0  0
    0.5233   -8.9301    0.0000 C   0  0  0  0  0  0  0  0  0  0  0  0
   -0.9439   -8.6182    0.0000 S   0  0  0  0  0  0  0  0  0  0  0  0
   -0.7500   -1.2990    0.0000 C   0  0  0  0  0  0  0  0  0  0  0  0
    0.7500   -1.2990    0.0000 C   0  0  0  0  0  0  0  0  0  0  0  0
    1.5000   -2.5981    0.0000 O   0  0  0  0  0  0  0  0  0  0  0  0
    3.0000   -2.5981    0.0000 C   0  0  0  0  0  0  0  0  0  0  0  0
    3.7500   -3.8971    0.0000 C   0  0  0  0  0  0  0  0  0  0  0  0
    3.0000   -5.1962    0.0000 C   0  0  0  0  0  0  0  0  0  0  0  0
    3.7500   -6.4952    0.0000 C   0  0  0  0  0  0  0  0  0  0  0  0
    5.2500   -6.4952    0.0000 C   0  0  0  0  0  0  0  0  0  0  0  0
    6.0000   -5.1962    0.0000 C   0  0  0  0  0  0  0  0  0  0  0  0
    5.2500   -3.8971    0.0000 C   0  0  0  0  0  0  0  0  0  0  0  0
    6.0000   -2.5981    0.0000 F   0  0  0  0  0  0  0  0  0  0  0  0
    1.5000    0.0000    0.0000 C   0  0  0  0  0  0  0  0  0  0  0  0
    0.7500    1.2990    0.0000 C   0  0  0  0  0  0  0  0  0  0  0  0
   -0.7500    1.2990    0.0000 C   0  0  0  0  0  0  0  0  0  0  0  0
   -1.5000    0.0000    0.0000 C   0  0  0  0  0  0  0  0  0  0  0  0
  1  2  1  0
  2  3  1  0
  3  4  2  0
  4  5  1  0
  5  6  2  0
  6  7  1  0
  7  8  2  0
  7  9  1  0
  9 10  1  0
 10 11  2  0
 11 12  1  0
 12 13  2  0
 13 14  1  0
 14 15  2  0
 15 16  1  0
  4 17  1  0
 17 18  2  0
 18 19  1  0
 19 20  1  0
 20 21  1  0
 21 22  2  0
 22 23  1  0
 23 24  2  0
 24 25  1  0
 25 26  2  0
 26 27  1  0
 18 28  1  0
 28 29  2  0
 29 30  1  0
 30 31  2  0
 31  2  1  0
 11  6  1  0
 16 12  1  0
 31 17  1  0
 26 21  1  0
M  END
>  <Compound_ID>  (292) 
CHEMBL1922980

>  <Molecule Name>  (292) 
nan

>  <Molecular Weight>  (292) 
432.48

>  <AlogP>  (292) 
4.27

>  <Smiles>  (292) 
Cn1cc(/C=C2\C(=O)NN=C2c2nccs2)c2c(OCc3ccccc3F)cccc21

>  <Standard Type>  (292) 
IC50

>  <Standard Relation>  (292) 
'='

>  <Standard Units>  (292) 
nM

>  <Standard Value>  (292) 
46.0

>  <Assay ChEMBL ID>  (292) 
CHEMBL1925015

>  <Assay Description>  (292) 
Inhibition of ALK

>  <BAO Format ID>  (292) 
BAO_0000357

>  <BAO Label>  (292) 
single protein format

>  <Assay Organism>  (292) 
None

>  <Target ChEMBL ID>  (292) 
CHEMBL4247

>  <Target Name>  (292) 
ALK tyrosine kinase receptor

>  <Target Organism>  (292) 
Homo sapiens

>  <Target Type>  (292) 
SINGLE PROTEIN

>  <Document ChEMBL ID>  (292) 
CHEMBL1921676

>  <Source Description>  (292) 
Scientific Literature

>  <Document Journal>  (292) 
Bioorg Med Chem Lett

>  <Document Year>  (292) 
2011.0

>  <Active>  (292) 
1.0

>  <bits>  (292) 
<rdkit.DataStructs.cDataStructs.ExplicitBitVect object at 0x000002422F18A650>

>  <Group>  (292) 
G2

$$$$

     RDKit          2D

 37 41  0  0  0  0  0  0  0  0999 V2000
    3.7500   -6.4952    0.0000 C   0  0  0  0  0  0  0  0  0  0  0  0
    3.0000   -5.1962    0.0000 O   0  0  0  0  0  0  0  0  0  0  0  0
    1.5000   -5.1962    0.0000 C   0  0  0  0  0  0  0  0  0  0  0  0
    0.7500   -6.4952    0.0000 C   0  0  0  0  0  0  0  0  0  0  0  0
   -0.7500   -6.4952    0.0000 C   0  0  0  0  0  0  0  0  0  0  0  0
   -1.5000   -7.7942    0.0000 C   0  0  0  0  0  0  0  0  0  0  0  0
   -3.0000   -7.7942    0.0000 C   0  0  0  0  0  0  0  0  0  0  0  0
   -3.7500   -9.0933    0.0000 C   0  0  0  0  0  0  0  0  0  0  0  0
   -3.0000  -10.3923    0.0000 N   0  0  0  0  0  0  0  0  0  0  0  0
   -3.7500  -11.6913    0.0000 C   0  0  0  0  0  0  0  0  0  0  0  0
   -5.2500  -11.6913    0.0000 C   0  0  0  0  0  0  0  0  0  0  0  0
   -6.0000  -12.9904    0.0000 N   0  0  0  0  0  0  0  0  0  0  0  0
   -6.0000  -10.3923    0.0000 O   0  0  0  0  0  0  0  0  0  0  0  0
   -1.5000  -10.3923    0.0000 C   0  0  0  0  0  0  0  0  0  0  0  0
   -0.7500   -9.0933    0.0000 C   0  0  0  0  0  0  0  0  0  0  0  0
    0.7500   -9.0933    0.0000 O   0  0  0  0  0  0  0  0  0  0  0  0
   -1.5000   -5.1962    0.0000 C   0  0  0  0  0  0  0  0  0  0  0  0
   -0.7500   -3.8971    0.0000 C   0  0  0  0  0  0  0  0  0  0  0  0
    0.7500   -3.8971    0.0000 C   0  0  0  0  0  0  0  0  0  0  0  0
    1.5000   -2.5981    0.0000 N   0  0  0  0  0  0  0  0  0  0  0  0
    0.7500   -1.2990    0.0000 C   0  0  0  0  0  0  0  0  0  0  0  0
    1.5000    0.0000    0.0000 N   0  0  0  0  0  0  0  0  0  0  0  0
    0.7500    1.2990    0.0000 C   0  0  0  0  0  0  0  0  0  0  0  0
   -0.7500    1.2990    0.0000 C   0  0  0  0  0  0  0  0  0  0  0  0
   -1.7537    2.4138    0.0000 C   0  0  0  0  0  0  0  0  0  0  0  0
   -3.1240    1.8037    0.0000 C   0  0  0  0  0  0  0  0  0  0  0  0
   -2.9672    0.3119    0.0000 C   0  0  0  0  0  0  0  0  0  0  0  0
   -4.0819   -0.6918    0.0000 C   0  0  0  0  0  0  0  0  0  0  0  0
   -5.5085   -0.2283    0.0000 C   0  0  0  0  0  0  0  0  0  0  0  0
   -6.6232   -1.2320    0.0000 C   0  0  0  0  0  0  0  0  0  0  0  0
   -6.3114   -2.6992    0.0000 C   0  0  0  0  0  0  0  0  0  0  0  0
   -4.8848   -3.1627    0.0000 C   0  0  0  0  0  0  0  0  0  0  0  0
   -3.7701   -2.1590    0.0000 C   0  0  0  0  0  0  0  0  0  0  0  0
   -2.3435   -2.6226    0.0000 O   0  0  0  0  0  0  0  0  0  0  0  0
   -2.0316   -4.0898    0.0000 C   0  0  0  0  0  0  0  0  0  0  0  0
   -1.5000    0.0000    0.0000 N   0  0  0  0  0  0  0  0  0  0  0  0
   -0.7500   -1.2990    0.0000 N   0  0  0  0  0  0  0  0  0  0  0  0
  1  2  1  0
  2  3  1  0
  3  4  2  0
  4  5  1  0
  6  5  1  1
  6  7  1  0
  7  8  1  0
  8  9  1  0
  9 10  1  0
 10 11  1  0
 11 12  1  0
 11 13  2  0
  9 14  1  0
 14 15  1  0
 15 16  1  1
  5 17  2  0
 17 18  1  0
 18 19  2  0
 19 20  1  0
 20 21  1  0
 21 22  1  0
 22 23  2  0
 23 24  1  0
 24 25  2  0
 25 26  1  0
 26 27  2  0
 27 28  1  0
 28 29  2  0
 29 30  1  0
 30 31  2  0
 31 32  1  0
 32 33  2  0
 33 34  1  0
 34 35  1  0
 27 36  1  0
 36 37  1  0
 19  3  1  0
 37 21  2  0
 15  6  1  0
 36 24  1  0
 33 28  1  0
M  END
>  <Compound_ID>  (293) 
CHEMBL3398173

>  <Molecule Name>  (293) 
nan

>  <Molecular Weight>  (293) 
502.58

>  <AlogP>  (293) 
2.79

>  <Smiles>  (293) 
COc1cc([C@@H]2CCN(CC(N)=O)C[C@@H]2O)ccc1Nc1ncc2ccc(-c3ccccc3OC)n2n1

>  <Standard Type>  (293) 
IC50

>  <Standard Relation>  (293) 
'='

>  <Standard Units>  (293) 
nM

>  <Standard Value>  (293) 
15.0

>  <Assay ChEMBL ID>  (293) 
CHEMBL3398705

>  <Assay Description>  (293) 
Inhibition of ALK (unknown origin) by enzymatic assay

>  <BAO Format ID>  (293) 
BAO_0000357

>  <BAO Label>  (293) 
single protein format

>  <Assay Organism>  (293) 
Homo sapiens

>  <Target ChEMBL ID>  (293) 
CHEMBL4247

>  <Target Name>  (293) 
ALK tyrosine kinase receptor

>  <Target Organism>  (293) 
Homo sapiens

>  <Target Type>  (293) 
SINGLE PROTEIN

>  <Document ChEMBL ID>  (293) 
CHEMBL3396997

>  <Source Description>  (293) 
Scientific Literature

>  <Document Journal>  (293) 
Bioorg Med Chem Lett

>  <Document Year>  (293) 
2015.0

>  <Active>  (293) 
1.0

>  <bits>  (293) 
<rdkit.DataStructs.cDataStructs.ExplicitBitVect object at 0x000002422F18A5E0>

>  <Group>  (293) 
G2

$$$$

     RDKit          2D

 39 44  0  0  0  0  0  0  0  0999 V2000
   -6.8516   -6.6578    0.0000 C   0  0  0  0  0  0  0  0  0  0  0  0
   -5.6381   -7.5395    0.0000 C   0  0  0  0  0  0  0  0  0  0  0  0
   -4.2677   -6.9294    0.0000 C   0  0  0  0  0  0  0  0  0  0  0  0
   -4.1110   -5.4376    0.0000 C   0  0  0  0  0  0  0  0  0  0  0  0
   -2.7406   -4.8275    0.0000 C   0  0  0  0  0  0  0  0  0  0  0  0
   -1.5271   -5.7092    0.0000 C   0  0  0  0  0  0  0  0  0  0  0  0
   -1.6839   -7.2010    0.0000 C   0  0  0  0  0  0  0  0  0  0  0  0
   -3.0542   -7.8111    0.0000 C   0  0  0  0  0  0  0  0  0  0  0  0
   -3.2110   -9.3029    0.0000 N   0  0  0  0  0  0  0  0  0  0  0  0
   -4.5813   -9.9130    0.0000 C   0  0  0  0  0  0  0  0  0  0  0  0
   -4.7381  -11.4047    0.0000 C   0  0  0  0  0  0  0  0  0  0  0  0
   -3.5246  -12.2864    0.0000 C   0  0  0  0  0  0  0  0  0  0  0  0
   -3.6814  -13.7782    0.0000 O   0  0  0  0  0  0  0  0  0  0  0  0
   -5.0517  -14.3883    0.0000 C   0  0  0  0  0  0  0  0  0  0  0  0
   -5.2085  -15.8801    0.0000 C   0  0  0  0  0  0  0  0  0  0  0  0
   -6.5788  -16.4902    0.0000 C   0  0  0  0  0  0  0  0  0  0  0  0
   -7.7923  -15.6085    0.0000 C   0  0  0  0  0  0  0  0  0  0  0  0
   -9.1627  -16.2186    0.0000 C   0  0  0  0  0  0  0  0  0  0  0  0
   -9.3195  -17.7104    0.0000 C   0  0  0  0  0  0  0  0  0  0  0  0
   -8.1059  -18.5921    0.0000 C   0  0  0  0  0  0  0  0  0  0  0  0
   -6.7356  -17.9820    0.0000 C   0  0  0  0  0  0  0  0  0  0  0  0
   -2.1543  -11.6763    0.0000 C   0  0  0  0  0  0  0  0  0  0  0  0
   -1.9975  -10.1845    0.0000 C   0  0  0  0  0  0  0  0  0  0  0  0
   -0.1568   -5.0991    0.0000 C   0  0  0  0  0  0  0  0  0  0  0  0
    1.3396   -4.9944    0.0000 C   0  0  0  0  0  0  0  0  0  0  0  0
    0.2061   -6.5545    0.0000 C   0  0  0  0  0  0  0  0  0  0  0  0
   -0.0000   -3.6073    0.0000 C   0  0  0  0  0  0  0  0  0  0  0  0
    1.2135   -2.7256    0.0000 N   0  0  0  0  0  0  0  0  0  0  0  0
    0.7500   -1.2990    0.0000 C   0  0  0  0  0  0  0  0  0  0  0  0
    1.5000    0.0000    0.0000 C   0  0  0  0  0  0  0  0  0  0  0  0
    0.7500    1.2990    0.0000 C   0  0  0  0  0  0  0  0  0  0  0  0
    1.5000    2.5981    0.0000 C   0  0  0  0  0  0  0  0  0  0  0  0
    2.2500    3.8971    0.0000 N   0  0  0  0  0  0  0  0  0  0  0  0
   -0.7500    1.2990    0.0000 C   0  0  0  0  0  0  0  0  0  0  0  0
   -1.5000    0.0000    0.0000 C   0  0  0  0  0  0  0  0  0  0  0  0
   -0.7500   -1.2990    0.0000 C   0  0  0  0  0  0  0  0  0  0  0  0
   -1.2135   -2.7256    0.0000 C   0  0  0  0  0  0  0  0  0  0  0  0
   -2.5838   -3.3357    0.0000 C   0  0  0  0  0  0  0  0  0  0  0  0
   -3.7974   -2.4540    0.0000 O   0  0  0  0  0  0  0  0  0  0  0  0
  1  2  1  0
  2  3  1  0
  3  4  2  0
  4  5  1  0
  5  6  2  0
  6  7  1  0
  7  8  2  0
  8  9  1  0
  9 10  1  0
 10 11  1  0
 11 12  1  0
 12 13  1  0
 13 14  1  0
 14 15  1  0
 15 16  1  0
 16 17  1  0
 17 18  1  0
 18 19  1  0
 19 20  1  0
 20 21  1  0
 12 22  1  0
 22 23  1  0
  6 24  1  0
 24 25  1  0
 24 26  1  0
 24 27  1  0
 27 28  1  0
 28 29  1  0
 29 30  2  0
 30 31  1  0
 31 32  1  0
 32 33  3  0
 31 34  2  0
 34 35  1  0
 35 36  2  0
 36 37  1  0
 37 38  1  0
 38 39  2  0
  8  3  1  0
 23  9  1  0
 37 27  2  0
 38  5  1  0
 21 16  1  0
 36 29  1  0
M  END
>  <Compound_ID>  (294) 
CHEMBL3908208

>  <Molecule Name>  (294) 
nan

>  <Molecular Weight>  (294) 
523.72

>  <AlogP>  (294) 
7.43

>  <Smiles>  (294) 
CCc1cc2c(cc1N1CCC(OCCC3CCCCC3)CC1)C(C)(C)c1[nH]c3cc(C#N)ccc3c1C2=O

>  <Standard Type>  (294) 
IC50

>  <Standard Relation>  (294) 
'='

>  <Standard Units>  (294) 
nM

>  <Standard Value>  (294) 
21.74

>  <Assay ChEMBL ID>  (294) 
CHEMBL3887074

>  <Assay Description>  (294) 
Inhibition Assay: ALK-inhibiting activity was measured by following an activity of inhibiting phosphorylation by biotinylated peptide (EGPWLEEEEEAYGWMDF). For the detection of phosphorylation of the biotinylated peptide, time-resolved fluorescence measurement was performed using an anti-phosphorylated tyrosine antibody labeled with europium cryptate and streptavidin conjugated to XL665, i.e., an allophycocyanin derivative.

>  <BAO Format ID>  (294) 
BAO_0000357

>  <BAO Label>  (294) 
single protein format

>  <Assay Organism>  (294) 
Homo sapiens

>  <Target ChEMBL ID>  (294) 
CHEMBL4247

>  <Target Name>  (294) 
ALK tyrosine kinase receptor

>  <Target Organism>  (294) 
Homo sapiens

>  <Target Type>  (294) 
SINGLE PROTEIN

>  <Document ChEMBL ID>  (294) 
CHEMBL3886150

>  <Source Description>  (294) 
BindingDB Database

>  <Document Journal>  (294) 
nan

>  <Document Year>  (294) 
2015.0

>  <Active>  (294) 
1.0

>  <bits>  (294) 
<rdkit.DataStructs.cDataStructs.ExplicitBitVect object at 0x000002422F18A490>

>  <Group>  (294) 
G2

$$$$

     RDKit          2D

 47 52  0  0  0  0  0  0  0  0999 V2000
    5.2500   -1.2990    0.0000 C   0  0  0  0  0  0  0  0  0  0  0  0
    3.7500   -1.2990    0.0000 C   0  0  0  0  0  0  0  0  0  0  0  0
    3.0000   -2.5981    0.0000 C   0  0  0  0  0  0  0  0  0  0  0  0
    3.0000    0.0000    0.0000 O   0  0  0  0  0  0  0  0  0  0  0  0
    1.5000    0.0000    0.0000 C   0  0  0  0  0  0  0  0  0  0  0  0
    0.7500   -1.2990    0.0000 C   0  0  0  0  0  0  0  0  0  0  0  0
   -0.7500   -1.2990    0.0000 C   0  0  0  0  0  0  0  0  0  0  0  0
   -1.5000    0.0000    0.0000 C   0  0  0  0  0  0  0  0  0  0  0  0
   -0.7500    1.2990    0.0000 C   0  0  0  0  0  0  0  0  0  0  0  0
    0.7500    1.2990    0.0000 C   0  0  0  0  0  0  0  0  0  0  0  0
    1.5000    2.5981    0.0000 N   0  0  0  0  0  0  0  0  0  0  0  0
    3.0000    2.5981    0.0000 C   0  0  0  0  0  0  0  0  0  0  0  0
    3.7500    1.2990    0.0000 N   0  0  0  0  0  0  0  0  0  0  0  0
    5.2500    1.2990    0.0000 C   0  0  0  0  0  0  0  0  0  0  0  0
    6.0000    2.5981    0.0000 C   0  0  0  0  0  0  0  0  0  0  0  0
    7.5000    2.5981    0.0000 Cl  0  0  0  0  0  0  0  0  0  0  0  0
    5.2500    3.8971    0.0000 C   0  0  0  0  0  0  0  0  0  0  0  0
    6.0000    5.1962    0.0000 N   0  0  0  0  0  0  0  0  0  0  0  0
    5.2500    6.4952    0.0000 C   0  0  0  0  0  0  0  0  0  0  0  0
    3.7500    6.4952    0.0000 C   0  0  0  0  0  0  0  0  0  0  0  0
    3.0000    7.7942    0.0000 C   0  0  0  0  0  0  0  0  0  0  0  0
    3.7500    9.0933    0.0000 C   0  0  0  0  0  0  0  0  0  0  0  0
    5.2500    9.0933    0.0000 C   0  0  0  0  0  0  0  0  0  0  0  0
    6.0000    7.7942    0.0000 C   0  0  0  0  0  0  0  0  0  0  0  0
    7.5000    7.7942    0.0000 S   0  0  0  0  0  0  0  0  0  0  0  0
    7.5000    6.2942    0.0000 O   0  0  0  0  0  0  0  0  0  0  0  0
    7.5000    9.2942    0.0000 O   0  0  0  0  0  0  0  0  0  0  0  0
    9.0000    7.7942    0.0000 C   0  0  0  0  0  0  0  0  0  0  0  0
    9.7500    9.0933    0.0000 C   0  0  0  0  0  0  0  0  0  0  0  0
    9.7500    6.4952    0.0000 C   0  0  0  0  0  0  0  0  0  0  0  0
    3.7500    3.8971    0.0000 N   0  0  0  0  0  0  0  0  0  0  0  0
   -2.9672   -0.3119    0.0000 C   0  0  0  0  0  0  0  0  0  0  0  0
   -4.0819    0.6918    0.0000 O   0  0  0  0  0  0  0  0  0  0  0  0
   -3.1240   -1.8037    0.0000 N   0  0  0  0  0  0  0  0  0  0  0  0
   -4.4231   -2.5537    0.0000 C   0  0  0  0  0  0  0  0  0  0  0  0
   -5.7221   -1.8037    0.0000 C   0  0  0  0  0  0  0  0  0  0  0  0
   -7.0211   -2.5537    0.0000 C   0  0  0  0  0  0  0  0  0  0  0  0
   -7.0211   -4.0537    0.0000 N   0  0  0  0  0  0  0  0  0  0  0  0
   -8.3202   -4.8037    0.0000 C   0  0  0  0  0  0  0  0  0  0  0  0
   -8.3202   -6.3037    0.0000 O   0  0  0  0  0  0  0  0  0  0  0  0
   -9.6192   -4.0537    0.0000 C   0  0  0  0  0  0  0  0  0  0  0  0
  -10.0074   -2.6048    0.0000 C   0  0  0  0  0  0  0  0  0  0  0  0
  -11.4563   -2.9930    0.0000 N   0  0  0  0  0  0  0  0  0  0  0  0
  -11.0681   -4.4419    0.0000 C   0  0  0  0  0  0  0  0  0  0  0  0
   -5.7221   -4.8037    0.0000 C   0  0  0  0  0  0  0  0  0  0  0  0
   -4.4231   -4.0537    0.0000 C   0  0  0  0  0  0  0  0  0  0  0  0
   -1.7537   -2.4138    0.0000 C   0  0  0  0  0  0  0  0  0  0  0  0
  1  2  1  0
  2  3  1  0
  2  4  1  0
  4  5  1  0
  5  6  2  0
  6  7  1  0
  7  8  2  0
  8  9  1  0
  9 10  2  0
 10 11  1  0
 11 12  1  0
 12 13  2  0
 13 14  1  0
 14 15  2  0
 15 16  1  0
 15 17  1  0
 17 18  1  0
 18 19  1  0
 19 20  2  0
 20 21  1  0
 21 22  2  0
 22 23  1  0
 23 24  2  0
 24 25  1  0
 25 26  2  0
 25 27  2  0
 25 28  1  0
 28 29  1  0
 28 30  1  0
 17 31  2  0
  8 32  1  0
 32 33  2  0
 32 34  1  0
 34 35  1  0
 35 36  1  0
 36 37  1  0
 37 38  1  0
 38 39  1  0
 39 40  2  0
 39 41  1  0
 41 42  1  0
 42 43  1  0
 43 44  1  0
 38 45  1  0
 45 46  1  0
 34 47  1  0
 10  5  1  0
 31 12  1  0
 46 35  1  0
 47  7  1  0
 24 19  1  0
 44 41  1  0
M  END
>  <Compound_ID>  (295) 
CHEMBL3651839

>  <Molecule Name>  (295) 
nan

>  <Molecular Weight>  (295) 
682.25

>  <AlogP>  (295) 
4.75

>  <Smiles>  (295) 
CC(C)Oc1cc2c(cc1Nc1ncc(Cl)c(Nc3ccccc3S(=O)(=O)C(C)C)n1)C(=O)N(C1CCN(C(=O)C3CNC3)CC1)C2

>  <Standard Type>  (295) 
IC50

>  <Standard Relation>  (295) 
'='

>  <Standard Units>  (295) 
nM

>  <Standard Value>  (295) 
87.0

>  <Assay ChEMBL ID>  (295) 
CHEMBL3705165

>  <Assay Description>  (295) 
Enzyme Assay: The inhibition of ALK tyrosine kinase activity may be demonstrated using known methods, for example using the recombinant kinase domain of the ALK in analogy to the VEGF-R kinase assay described in J. Wood et al. Cancer Res. 60, 2178-2189 (2000).

>  <BAO Format ID>  (295) 
BAO_0000357

>  <BAO Label>  (295) 
single protein format

>  <Assay Organism>  (295) 
Homo sapiens

>  <Target ChEMBL ID>  (295) 
CHEMBL4247

>  <Target Name>  (295) 
ALK tyrosine kinase receptor

>  <Target Organism>  (295) 
Homo sapiens

>  <Target Type>  (295) 
SINGLE PROTEIN

>  <Document ChEMBL ID>  (295) 
CHEMBL3638924

>  <Source Description>  (295) 
BindingDB Database

>  <Document Journal>  (295) 
nan

>  <Document Year>  (295) 
2013.0

>  <Active>  (295) 
1.0

>  <bits>  (295) 
<rdkit.DataStructs.cDataStructs.ExplicitBitVect object at 0x000002422F18A3B0>

>  <Group>  (295) 
G2

$$$$

     RDKit          2D

 33 37  0  0  0  0  0  0  0  0999 V2000
   -4.6634   -2.0210    0.0000 C   0  0  0  0  0  0  0  0  0  0  0  0
   -5.7781   -3.0247    0.0000 C   0  0  0  0  0  0  0  0  0  0  0  0
   -7.2453   -2.7128    0.0000 N   0  0  0  0  0  0  0  0  0  0  0  0
   -7.9953   -4.0119    0.0000 N   0  0  0  0  0  0  0  0  0  0  0  0
   -6.9917   -5.1266    0.0000 S   0  0  0  0  0  0  0  0  0  0  0  0
   -5.6213   -4.5165    0.0000 C   0  0  0  0  0  0  0  0  0  0  0  0
   -4.3223   -5.2665    0.0000 C   0  0  0  0  0  0  0  0  0  0  0  0
   -4.1655   -6.7583    0.0000 N   0  0  0  0  0  0  0  0  0  0  0  0
   -2.6983   -7.0701    0.0000 N   0  0  0  0  0  0  0  0  0  0  0  0
   -1.9483   -5.7711    0.0000 C   0  0  0  0  0  0  0  0  0  0  0  0
   -0.4565   -5.6143    0.0000 O   0  0  0  0  0  0  0  0  0  0  0  0
   -2.9520   -4.6564    0.0000 C   0  0  0  0  0  0  0  0  0  0  0  0
   -2.6401   -3.1891    0.0000 C   0  0  0  0  0  0  0  0  0  0  0  0
   -1.2135   -2.7256    0.0000 C   0  0  0  0  0  0  0  0  0  0  0  0
   -0.0000   -3.6073    0.0000 C   0  0  0  0  0  0  0  0  0  0  0  0
    1.2135   -2.7256    0.0000 N   0  0  0  0  0  0  0  0  0  0  0  0
    2.6401   -3.1891    0.0000 C   0  0  0  0  0  0  0  0  0  0  0  0
    0.7500   -1.2990    0.0000 C   0  0  0  0  0  0  0  0  0  0  0  0
    1.5000    0.0000    0.0000 C   0  0  0  0  0  0  0  0  0  0  0  0
    0.7500    1.2990    0.0000 C   0  0  0  0  0  0  0  0  0  0  0  0
   -0.7500    1.2990    0.0000 C   0  0  0  0  0  0  0  0  0  0  0  0
   -1.5000    0.0000    0.0000 C   0  0  0  0  0  0  0  0  0  0  0  0
   -3.0000    0.0000    0.0000 O   0  0  0  0  0  0  0  0  0  0  0  0
   -3.7500    1.2990    0.0000 C   0  0  0  0  0  0  0  0  0  0  0  0
   -5.2500    1.2990    0.0000 C   0  0  0  0  0  0  0  0  0  0  0  0
   -6.0000    2.5981    0.0000 C   0  0  0  0  0  0  0  0  0  0  0  0
   -5.2500    3.8971    0.0000 F   0  0  0  0  0  0  0  0  0  0  0  0
   -7.5000    2.5981    0.0000 C   0  0  0  0  0  0  0  0  0  0  0  0
   -8.2500    1.2990    0.0000 C   0  0  0  0  0  0  0  0  0  0  0  0
   -7.5000    0.0000    0.0000 C   0  0  0  0  0  0  0  0  0  0  0  0
   -6.0000    0.0000    0.0000 C   0  0  0  0  0  0  0  0  0  0  0  0
   -5.2500   -1.2990    0.0000 Cl  0  0  0  0  0  0  0  0  0  0  0  0
   -0.7500   -1.2990    0.0000 C   0  0  0  0  0  0  0  0  0  0  0  0
  1  2  1  0
  2  3  1  0
  3  4  2  0
  4  5  1  0
  5  6  1  0
  6  7  1  0
  7  8  2  0
  8  9  1  0
  9 10  1  0
 10 11  2  0
 10 12  1  0
 12 13  2  0
 13 14  1  0
 14 15  2  0
 15 16  1  0
 16 17  1  0
 16 18  1  0
 18 19  2  0
 19 20  1  0
 20 21  2  0
 21 22  1  0
 22 23  1  0
 23 24  1  0
 24 25  1  0
 25 26  2  0
 26 27  1  0
 26 28  1  0
 28 29  2  0
 29 30  1  0
 30 31  2  0
 31 32  1  0
 22 33  2  0
  6  2  2  0
 12  7  1  0
 33 14  1  0
 33 18  1  0
 31 25  1  0
M  END
>  <Compound_ID>  (296) 
CHEMBL1922972

>  <Molecule Name>  (296) 
nan

>  <Molecular Weight>  (296) 
481.94

>  <AlogP>  (296) 
4.63

>  <Smiles>  (296) 
Cc1nnsc1C1=NNC(=O)/C1=C\c1cn(C)c2cccc(OCc3c(F)cccc3Cl)c12

>  <Standard Type>  (296) 
IC50

>  <Standard Relation>  (296) 
'='

>  <Standard Units>  (296) 
nM

>  <Standard Value>  (296) 
21.0

>  <Assay ChEMBL ID>  (296) 
CHEMBL1925015

>  <Assay Description>  (296) 
Inhibition of ALK

>  <BAO Format ID>  (296) 
BAO_0000357

>  <BAO Label>  (296) 
single protein format

>  <Assay Organism>  (296) 
None

>  <Target ChEMBL ID>  (296) 
CHEMBL4247

>  <Target Name>  (296) 
ALK tyrosine kinase receptor

>  <Target Organism>  (296) 
Homo sapiens

>  <Target Type>  (296) 
SINGLE PROTEIN

>  <Document ChEMBL ID>  (296) 
CHEMBL1921676

>  <Source Description>  (296) 
Scientific Literature

>  <Document Journal>  (296) 
Bioorg Med Chem Lett

>  <Document Year>  (296) 
2011.0

>  <Active>  (296) 
1.0

>  <bits>  (296) 
<rdkit.DataStructs.cDataStructs.ExplicitBitVect object at 0x000002422F189EE0>

>  <Group>  (296) 
G2

$$$$

     RDKit          2D

 36 41  0  0  0  0  0  0  0  0999 V2000
   -8.2500   -2.3971    0.0000 C   0  0  0  0  0  0  0  0  0  0  0  0
   -8.2500   -3.8971    0.0000 C   0  0  0  0  0  0  0  0  0  0  0  0
   -8.2500   -5.3971    0.0000 C   0  0  0  0  0  0  0  0  0  0  0  0
   -9.7500   -3.8971    0.0000 C   0  0  0  0  0  0  0  0  0  0  0  0
   -6.7500   -3.8971    0.0000 N   0  0  0  0  0  0  0  0  0  0  0  0
   -6.0000   -2.5981    0.0000 C   0  0  0  0  0  0  0  0  0  0  0  0
   -4.5000   -2.5981    0.0000 C   0  0  0  0  0  0  0  0  0  0  0  0
   -3.7500   -3.8971    0.0000 N   0  0  0  0  0  0  0  0  0  0  0  0
   -2.2500   -3.8971    0.0000 C   0  0  0  0  0  0  0  0  0  0  0  0
   -1.5000   -2.5981    0.0000 C   0  0  0  0  0  0  0  0  0  0  0  0
   -0.0000   -2.5981    0.0000 C   0  0  0  0  0  0  0  0  0  0  0  0
    0.7500   -3.8971    0.0000 C   0  0  0  0  0  0  0  0  0  0  0  0
   -0.0000   -5.1962    0.0000 C   0  0  0  0  0  0  0  0  0  0  0  0
   -1.5000   -5.1962    0.0000 C   0  0  0  0  0  0  0  0  0  0  0  0
   -2.2500   -6.4952    0.0000 Br  0  0  0  0  0  0  0  0  0  0  0  0
    2.2500   -3.8971    0.0000 C   0  0  0  0  0  0  0  0  0  0  0  0
    3.0000   -5.1962    0.0000 O   0  0  0  0  0  0  0  0  0  0  0  0
    3.0000   -2.5981    0.0000 C   0  0  0  0  0  0  0  0  0  0  0  0
    2.2500   -1.2990    0.0000 C   0  0  0  0  0  0  0  0  0  0  0  0
    3.2537   -0.1843    0.0000 N   0  0  0  0  0  0  0  0  0  0  0  0
    4.6240   -0.7944    0.0000 C   0  0  0  0  0  0  0  0  0  0  0  0
    5.9943   -0.1843    0.0000 C   0  0  0  0  0  0  0  0  0  0  0  0
    7.2079   -1.0660    0.0000 C   0  0  0  0  0  0  0  0  0  0  0  0
    8.5782   -0.4559    0.0000 C   0  0  0  0  0  0  0  0  0  0  0  0
    9.9485    0.1542    0.0000 N   0  0  0  0  0  0  0  0  0  0  0  0
    7.0511   -2.5578    0.0000 C   0  0  0  0  0  0  0  0  0  0  0  0
    5.6807   -3.1679    0.0000 C   0  0  0  0  0  0  0  0  0  0  0  0
    4.4672   -2.2862    0.0000 C   0  0  0  0  0  0  0  0  0  0  0  0
    0.7500   -1.2990    0.0000 C   0  0  0  0  0  0  0  0  0  0  0  0
    1.5000    0.0000    0.0000 C   0  0  0  0  0  0  0  0  0  0  0  0
    0.7500    1.2990    0.0000 C   0  0  0  0  0  0  0  0  0  0  0  0
   -0.7500    1.2990    0.0000 O   0  0  0  0  0  0  0  0  0  0  0  0
   -1.5000    0.0000    0.0000 C   0  0  0  0  0  0  0  0  0  0  0  0
   -0.7500   -1.2990    0.0000 C   0  0  0  0  0  0  0  0  0  0  0  0
   -4.5000   -5.1962    0.0000 C   0  0  0  0  0  0  0  0  0  0  0  0
   -6.0000   -5.1962    0.0000 C   0  0  0  0  0  0  0  0  0  0  0  0
  1  2  1  0
  2  3  1  0
  2  4  1  0
  2  5  1  0
  5  6  1  0
  6  7  1  0
  7  8  1  0
  8  9  1  0
  9 10  2  0
 10 11  1  0
 11 12  2  0
 12 13  1  0
 13 14  2  0
 14 15  1  0
 12 16  1  0
 16 17  2  0
 16 18  1  0
 18 19  2  0
 19 20  1  0
 20 21  1  0
 21 22  2  0
 22 23  1  0
 23 24  1  0
 24 25  3  0
 23 26  2  0
 26 27  1  0
 27 28  2  0
 19 29  1  0
 29 30  1  0
 30 31  1  0
 31 32  1  0
 32 33  1  0
 33 34  1  0
  8 35  1  0
 35 36  1  0
 36  5  1  0
 14  9  1  0
 28 18  1  0
 34 29  1  0
 29 11  1  0
 28 21  1  0
M  END
>  <Compound_ID>  (297) 
CHEMBL3915577

>  <Molecule Name>  (297) 
nan

>  <Molecular Weight>  (297) 
547.5

>  <AlogP>  (297) 
5.36

>  <Smiles>  (297) 
CC(C)(C)N1CCN(c2cc3c(cc2Br)C(=O)c2c([nH]c4cc(C#N)ccc24)C32CCOCC2)CC1

>  <Standard Type>  (297) 
IC50

>  <Standard Relation>  (297) 
'='

>  <Standard Units>  (297) 
nM

>  <Standard Value>  (297) 
0.32

>  <Assay ChEMBL ID>  (297) 
CHEMBL3887074

>  <Assay Description>  (297) 
Inhibition Assay: ALK-inhibiting activity was measured by following an activity of inhibiting phosphorylation by biotinylated peptide (EGPWLEEEEEAYGWMDF). For the detection of phosphorylation of the biotinylated peptide, time-resolved fluorescence measurement was performed using an anti-phosphorylated tyrosine antibody labeled with europium cryptate and streptavidin conjugated to XL665, i.e., an allophycocyanin derivative.

>  <BAO Format ID>  (297) 
BAO_0000357

>  <BAO Label>  (297) 
single protein format

>  <Assay Organism>  (297) 
Homo sapiens

>  <Target ChEMBL ID>  (297) 
CHEMBL4247

>  <Target Name>  (297) 
ALK tyrosine kinase receptor

>  <Target Organism>  (297) 
Homo sapiens

>  <Target Type>  (297) 
SINGLE PROTEIN

>  <Document ChEMBL ID>  (297) 
CHEMBL3886150

>  <Source Description>  (297) 
BindingDB Database

>  <Document Journal>  (297) 
nan

>  <Document Year>  (297) 
2015.0

>  <Active>  (297) 
1.0

>  <bits>  (297) 
<rdkit.DataStructs.cDataStructs.ExplicitBitVect object at 0x000002422F189700>

>  <Group>  (297) 
G2

$$$$

     RDKit          2D

 34 38  0  0  0  0  0  0  0  0999 V2000
    2.6491   -3.5623    0.0000 C   0  0  0  0  0  0  0  0  0  0  0  0
    1.5000   -2.5981    0.0000 C   0  0  0  0  0  0  0  0  0  0  0  0
    2.6491   -1.6339    0.0000 C   0  0  0  0  0  0  0  0  0  0  0  0
    0.7500   -1.2990    0.0000 C   0  0  0  0  0  0  0  0  0  0  0  0
    1.5000    0.0000    0.0000 C   0  0  0  0  0  0  0  0  0  0  0  0
    0.7500    1.2990    0.0000 C   0  0  0  0  0  0  0  0  0  0  0  0
    1.5000    2.5981    0.0000 C   0  0  0  0  0  0  0  0  0  0  0  0
    0.7500    3.8971    0.0000 O   0  0  0  0  0  0  0  0  0  0  0  0
    3.0000    2.5981    0.0000 N   0  0  0  0  0  0  0  0  0  0  0  0
    3.7500    1.2990    0.0000 C   0  0  0  0  0  0  0  0  0  0  0  0
    5.2500    1.2990    0.0000 C   0  0  0  0  0  0  0  0  0  0  0  0
    6.0000    2.5981    0.0000 N   0  0  0  0  0  0  0  0  0  0  0  0
    7.5000    2.5981    0.0000 C   0  0  0  0  0  0  0  0  0  0  0  0
    7.5000    1.0981    0.0000 C   0  0  0  0  0  0  0  0  0  0  0  0
    7.5000    4.0981    0.0000 C   0  0  0  0  0  0  0  0  0  0  0  0
    9.0000    2.5981    0.0000 C   0  0  0  0  0  0  0  0  0  0  0  0
    5.2500    3.8971    0.0000 C   0  0  0  0  0  0  0  0  0  0  0  0
    3.7500    3.8971    0.0000 C   0  0  0  0  0  0  0  0  0  0  0  0
   -0.7500    1.2990    0.0000 C   0  0  0  0  0  0  0  0  0  0  0  0
   -1.5000    0.0000    0.0000 C   0  0  0  0  0  0  0  0  0  0  0  0
   -0.7500   -1.2990    0.0000 C   0  0  0  0  0  0  0  0  0  0  0  0
   -1.5000   -2.5981    0.0000 C   0  0  0  0  0  0  0  0  0  0  0  0
   -3.0000   -2.5981    0.0000 O   0  0  0  0  0  0  0  0  0  0  0  0
   -0.7500   -3.8971    0.0000 C   0  0  0  0  0  0  0  0  0  0  0  0
    0.7500   -3.8971    0.0000 C   0  0  0  0  0  0  0  0  0  0  0  0
    1.2135   -5.3237    0.0000 N   0  0  0  0  0  0  0  0  0  0  0  0
    0.0000   -6.2054    0.0000 C   0  0  0  0  0  0  0  0  0  0  0  0
   -0.1568   -7.6972    0.0000 C   0  0  0  0  0  0  0  0  0  0  0  0
   -1.5271   -8.3073    0.0000 C   0  0  0  0  0  0  0  0  0  0  0  0
   -1.6839   -9.7990    0.0000 C   0  0  0  0  0  0  0  0  0  0  0  0
   -1.8407  -11.2908    0.0000 N   0  0  0  0  0  0  0  0  0  0  0  0
   -2.7406   -7.4256    0.0000 C   0  0  0  0  0  0  0  0  0  0  0  0
   -2.5838   -5.9338    0.0000 C   0  0  0  0  0  0  0  0  0  0  0  0
   -1.2135   -5.3237    0.0000 C   0  0  0  0  0  0  0  0  0  0  0  0
  1  2  1  0
  2  3  1  0
  2  4  1  0
  4  5  2  0
  5  6  1  0
  6  7  1  0
  7  8  2  0
  7  9  1  0
  9 10  1  0
 10 11  1  0
 11 12  1  0
 12 13  1  0
 13 14  1  0
 13 15  1  0
 13 16  1  0
 12 17  1  0
 17 18  1  0
  6 19  2  0
 19 20  1  0
 20 21  2  0
 21 22  1  0
 22 23  2  0
 22 24  1  0
 24 25  2  0
 25 26  1  0
 26 27  1  0
 27 28  2  0
 28 29  1  0
 29 30  1  0
 30 31  3  0
 29 32  2  0
 32 33  1  0
 33 34  2  0
 25  2  1  0
 34 27  1  0
 21  4  1  0
 34 24  1  0
 18  9  1  0
M  END
>  <Compound_ID>  (298) 
CHEMBL3937469

>  <Molecule Name>  (298) 
nan

>  <Molecular Weight>  (298) 
454.57

>  <AlogP>  (298) 
4.47

>  <Smiles>  (298) 
CC1(C)c2cc(C(=O)N3CCN(C(C)(C)C)CC3)ccc2C(=O)c2c1[nH]c1cc(C#N)ccc21

>  <Standard Type>  (298) 
IC50

>  <Standard Relation>  (298) 
'='

>  <Standard Units>  (298) 
nM

>  <Standard Value>  (298) 
6.002

>  <Assay ChEMBL ID>  (298) 
CHEMBL3887074

>  <Assay Description>  (298) 
Inhibition Assay: ALK-inhibiting activity was measured by following an activity of inhibiting phosphorylation by biotinylated peptide (EGPWLEEEEEAYGWMDF). For the detection of phosphorylation of the biotinylated peptide, time-resolved fluorescence measurement was performed using an anti-phosphorylated tyrosine antibody labeled with europium cryptate and streptavidin conjugated to XL665, i.e., an allophycocyanin derivative.

>  <BAO Format ID>  (298) 
BAO_0000357

>  <BAO Label>  (298) 
single protein format

>  <Assay Organism>  (298) 
Homo sapiens

>  <Target ChEMBL ID>  (298) 
CHEMBL4247

>  <Target Name>  (298) 
ALK tyrosine kinase receptor

>  <Target Organism>  (298) 
Homo sapiens

>  <Target Type>  (298) 
SINGLE PROTEIN

>  <Document ChEMBL ID>  (298) 
CHEMBL3886150

>  <Source Description>  (298) 
BindingDB Database

>  <Document Journal>  (298) 
nan

>  <Document Year>  (298) 
2015.0

>  <Active>  (298) 
1.0

>  <bits>  (298) 
<rdkit.DataStructs.cDataStructs.ExplicitBitVect object at 0x000002422F1891C0>

>  <Group>  (298) 
G2

$$$$

     RDKit          2D

 29 32  0  0  0  0  0  0  0  0999 V2000
    8.2500   -3.8971    0.0000 C   0  0  0  0  0  0  0  0  0  0  0  0
    7.5000   -2.5981    0.0000 C   0  0  0  0  0  0  0  0  0  0  0  0
    8.2500   -1.2990    0.0000 O   0  0  0  0  0  0  0  0  0  0  0  0
    6.0000   -2.5981    0.0000 N   0  0  0  0  0  0  0  0  0  0  0  0
    5.2500   -1.2990    0.0000 C   0  0  0  0  0  0  0  0  0  0  0  0
    3.7500   -1.2990    0.0000 C   0  0  0  0  0  0  0  0  0  0  0  0
    3.0000    0.0000    0.0000 O   0  0  0  0  0  0  0  0  0  0  0  0
    1.5000    0.0000    0.0000 C   0  0  0  0  0  0  0  0  0  0  0  0
    0.7500   -1.2990    0.0000 C   0  0  0  0  0  0  0  0  0  0  0  0
   -0.7500   -1.2990    0.0000 C   0  0  0  0  0  0  0  0  0  0  0  0
   -1.5000    0.0000    0.0000 C   0  0  0  0  0  0  0  0  0  0  0  0
   -0.7500    1.2990    0.0000 C   0  0  0  0  0  0  0  0  0  0  0  0
    0.7500    1.2990    0.0000 C   0  0  0  0  0  0  0  0  0  0  0  0
   -1.5000    2.5981    0.0000 C   0  0  0  0  0  0  0  0  0  0  0  0
   -1.7605    4.0753    0.0000 C   0  0  0  0  0  0  0  0  0  0  0  0
   -0.0905    3.1111    0.0000 C   0  0  0  0  0  0  0  0  0  0  0  0
   -3.0000    2.5981    0.0000 C   0  0  0  0  0  0  0  0  0  0  0  0
   -4.0037    3.7128    0.0000 N   0  0  0  0  0  0  0  0  0  0  0  0
   -5.3740    3.1027    0.0000 C   0  0  0  0  0  0  0  0  0  0  0  0
   -6.7443    3.7128    0.0000 C   0  0  0  0  0  0  0  0  0  0  0  0
   -7.9579    2.8311    0.0000 C   0  0  0  0  0  0  0  0  0  0  0  0
   -9.3282    3.4412    0.0000 C   0  0  0  0  0  0  0  0  0  0  0  0
  -10.6985    4.0513    0.0000 N   0  0  0  0  0  0  0  0  0  0  0  0
   -7.8011    1.3393    0.0000 C   0  0  0  0  0  0  0  0  0  0  0  0
   -6.4307    0.7292    0.0000 C   0  0  0  0  0  0  0  0  0  0  0  0
   -5.2172    1.6109    0.0000 C   0  0  0  0  0  0  0  0  0  0  0  0
   -3.7500    1.2990    0.0000 C   0  0  0  0  0  0  0  0  0  0  0  0
   -3.0000    0.0000    0.0000 C   0  0  0  0  0  0  0  0  0  0  0  0
   -3.7500   -1.2990    0.0000 O   0  0  0  0  0  0  0  0  0  0  0  0
  1  2  1  0
  2  3  2  0
  2  4  1  0
  4  5  1  0
  5  6  1  0
  6  7  1  0
  7  8  1  0
  8  9  2  0
  9 10  1  0
 10 11  2  0
 11 12  1  0
 12 13  2  0
 12 14  1  0
 14 15  1  0
 14 16  1  0
 14 17  1  0
 17 18  1  0
 18 19  1  0
 19 20  2  0
 20 21  1  0
 21 22  1  0
 22 23  3  0
 21 24  2  0
 24 25  1  0
 25 26  2  0
 26 27  1  0
 27 28  1  0
 28 29  2  0
 13  8  1  0
 27 17  2  0
 28 11  1  0
 26 19  1  0
M  END
>  <Compound_ID>  (299) 
CHEMBL1779194

>  <Molecule Name>  (299) 
nan

>  <Molecular Weight>  (299) 
387.44

>  <AlogP>  (299) 
3.42

>  <Smiles>  (299) 
CC(=O)NCCOc1ccc2c(c1)C(C)(C)c1[nH]c3cc(C#N)ccc3c1C2=O

>  <Standard Type>  (299) 
IC50

>  <Standard Relation>  (299) 
'='

>  <Standard Units>  (299) 
nM

>  <Standard Value>  (299) 
11.6

>  <Assay ChEMBL ID>  (299) 
CHEMBL1781770

>  <Assay Description>  (299) 
Inhibition of ALK assessed as biotin-EGPWLEEEEEAYGWMDF peptide phosphorylation by TR-FRET assay

>  <BAO Format ID>  (299) 
BAO_0000357

>  <BAO Label>  (299) 
single protein format

>  <Assay Organism>  (299) 
None

>  <Target ChEMBL ID>  (299) 
CHEMBL4247

>  <Target Name>  (299) 
ALK tyrosine kinase receptor

>  <Target Organism>  (299) 
Homo sapiens

>  <Target Type>  (299) 
SINGLE PROTEIN

>  <Document ChEMBL ID>  (299) 
CHEMBL1777813

>  <Source Description>  (299) 
Scientific Literature

>  <Document Journal>  (299) 
Bioorg Med Chem Lett

>  <Document Year>  (299) 
2011.0

>  <Active>  (299) 
1.0

>  <bits>  (299) 
<rdkit.DataStructs.cDataStructs.ExplicitBitVect object at 0x000002422F188F90>

>  <Group>  (299) 
G2

$$$$

     RDKit          2D

 30 33  0  0  0  0  0  0  0  0999 V2000
    8.2500   -3.8971    0.0000 C   0  0  0  0  0  0  0  0  0  0  0  0
    7.5000   -2.5981    0.0000 C   0  0  0  0  0  0  0  0  0  0  0  0
    6.0000   -2.5981    0.0000 N   0  0  0  0  0  0  0  0  0  0  0  0
    5.2500   -3.8971    0.0000 C   0  0  0  0  0  0  0  0  0  0  0  0
    6.0000   -5.1962    0.0000 C   0  0  0  0  0  0  0  0  0  0  0  0
    5.2500   -1.2990    0.0000 C   0  0  0  0  0  0  0  0  0  0  0  0
    3.7500   -1.2990    0.0000 C   0  0  0  0  0  0  0  0  0  0  0  0
    3.0000    0.0000    0.0000 O   0  0  0  0  0  0  0  0  0  0  0  0
    1.5000    0.0000    0.0000 C   0  0  0  0  0  0  0  0  0  0  0  0
    0.7500   -1.2990    0.0000 C   0  0  0  0  0  0  0  0  0  0  0  0
   -0.7500   -1.2990    0.0000 C   0  0  0  0  0  0  0  0  0  0  0  0
   -1.5000    0.0000    0.0000 C   0  0  0  0  0  0  0  0  0  0  0  0
   -0.7500    1.2990    0.0000 C   0  0  0  0  0  0  0  0  0  0  0  0
    0.7500    1.2990    0.0000 N   0  0  0  0  0  0  0  0  0  0  0  0
   -1.5000    2.5981    0.0000 C   0  0  0  0  0  0  0  0  0  0  0  0
   -1.7605    4.0753    0.0000 C   0  0  0  0  0  0  0  0  0  0  0  0
   -0.0905    3.1111    0.0000 C   0  0  0  0  0  0  0  0  0  0  0  0
   -3.0000    2.5981    0.0000 C   0  0  0  0  0  0  0  0  0  0  0  0
   -4.0037    3.7128    0.0000 N   0  0  0  0  0  0  0  0  0  0  0  0
   -5.3740    3.1027    0.0000 C   0  0  0  0  0  0  0  0  0  0  0  0
   -6.7443    3.7128    0.0000 C   0  0  0  0  0  0  0  0  0  0  0  0
   -7.9579    2.8311    0.0000 C   0  0  0  0  0  0  0  0  0  0  0  0
   -9.3282    3.4412    0.0000 C   0  0  0  0  0  0  0  0  0  0  0  0
  -10.6985    4.0513    0.0000 N   0  0  0  0  0  0  0  0  0  0  0  0
   -7.8011    1.3393    0.0000 C   0  0  0  0  0  0  0  0  0  0  0  0
   -6.4307    0.7292    0.0000 C   0  0  0  0  0  0  0  0  0  0  0  0
   -5.2172    1.6109    0.0000 C   0  0  0  0  0  0  0  0  0  0  0  0
   -3.7500    1.2990    0.0000 C   0  0  0  0  0  0  0  0  0  0  0  0
   -3.0000    0.0000    0.0000 C   0  0  0  0  0  0  0  0  0  0  0  0
   -3.7500   -1.2990    0.0000 O   0  0  0  0  0  0  0  0  0  0  0  0
  1  2  1  0
  2  3  1  0
  3  4  1  0
  4  5  1  0
  3  6  1  0
  6  7  1  0
  7  8  1  0
  8  9  1  0
  9 10  2  0
 10 11  1  0
 11 12  2  0
 12 13  1  0
 13 14  2  0
 13 15  1  0
 15 16  1  0
 15 17  1  0
 15 18  1  0
 18 19  1  0
 19 20  1  0
 20 21  2  0
 21 22  1  0
 22 23  1  0
 23 24  3  0
 22 25  2  0
 25 26  1  0
 26 27  2  0
 27 28  1  0
 28 29  1  0
 29 30  2  0
 14  9  1  0
 28 18  2  0
 29 12  1  0
 27 20  1  0
M  END
>  <Compound_ID>  (300) 
CHEMBL3938910

>  <Molecule Name>  (300) 
nan

>  <Molecular Weight>  (300) 
402.5

>  <AlogP>  (300) 
4.03

>  <Smiles>  (300) 
CCN(CC)CCOc1ccc2c(n1)C(C)(C)c1[nH]c3cc(C#N)ccc3c1C2=O

>  <Standard Type>  (300) 
IC50

>  <Standard Relation>  (300) 
'='

>  <Standard Units>  (300) 
nM

>  <Standard Value>  (300) 
6.473

>  <Assay ChEMBL ID>  (300) 
CHEMBL3887074

>  <Assay Description>  (300) 
Inhibition Assay: ALK-inhibiting activity was measured by following an activity of inhibiting phosphorylation by biotinylated peptide (EGPWLEEEEEAYGWMDF). For the detection of phosphorylation of the biotinylated peptide, time-resolved fluorescence measurement was performed using an anti-phosphorylated tyrosine antibody labeled with europium cryptate and streptavidin conjugated to XL665, i.e., an allophycocyanin derivative.

>  <BAO Format ID>  (300) 
BAO_0000357

>  <BAO Label>  (300) 
single protein format

>  <Assay Organism>  (300) 
Homo sapiens

>  <Target ChEMBL ID>  (300) 
CHEMBL4247

>  <Target Name>  (300) 
ALK tyrosine kinase receptor

>  <Target Organism>  (300) 
Homo sapiens

>  <Target Type>  (300) 
SINGLE PROTEIN

>  <Document ChEMBL ID>  (300) 
CHEMBL3886150

>  <Source Description>  (300) 
BindingDB Database

>  <Document Journal>  (300) 
nan

>  <Document Year>  (300) 
2015.0

>  <Active>  (300) 
1.0

>  <bits>  (300) 
<rdkit.DataStructs.cDataStructs.ExplicitBitVect object at 0x000002422F188E40>

>  <Group>  (300) 
G2

$$$$

     RDKit          2D

 45 49  0  0  0  0  0  0  0  0999 V2000
    3.7500   -1.2990    0.0000 C   0  0  0  0  0  0  0  0  0  0  0  0
    3.0000    0.0000    0.0000 O   0  0  0  0  0  0  0  0  0  0  0  0
    1.5000    0.0000    0.0000 C   0  0  0  0  0  0  0  0  0  0  0  0
    0.7500   -1.2990    0.0000 C   0  0  0  0  0  0  0  0  0  0  0  0
   -0.7500   -1.2990    0.0000 C   0  0  0  0  0  0  0  0  0  0  0  0
   -1.5000   -2.5981    0.0000 N   0  0  0  0  0  0  0  0  0  0  0  0
   -3.0000   -2.5981    0.0000 C   0  0  0  0  0  0  0  0  0  0  0  0
   -3.7500   -3.8971    0.0000 C   0  0  0  0  0  0  0  0  0  0  0  0
   -3.0000   -5.1962    0.0000 N   0  0  0  0  0  0  0  0  0  0  0  0
   -3.7500   -6.4952    0.0000 C   0  0  0  0  0  0  0  0  0  0  0  0
   -5.2500   -6.4952    0.0000 C   0  0  0  0  0  0  0  0  0  0  0  0
   -3.0000   -7.7942    0.0000 O   0  0  0  0  0  0  0  0  0  0  0  0
   -1.5000   -5.1962    0.0000 C   0  0  0  0  0  0  0  0  0  0  0  0
   -0.7500   -3.8971    0.0000 C   0  0  0  0  0  0  0  0  0  0  0  0
   -1.5000    0.0000    0.0000 C   0  0  0  0  0  0  0  0  0  0  0  0
   -0.7500    1.2990    0.0000 C   0  0  0  0  0  0  0  0  0  0  0  0
    0.7500    1.2990    0.0000 C   0  0  0  0  0  0  0  0  0  0  0  0
    1.5000    2.5981    0.0000 N   0  0  0  0  0  0  0  0  0  0  0  0
    3.0000    2.5981    0.0000 C   0  0  0  0  0  0  0  0  0  0  0  0
    3.7500    1.2990    0.0000 N   0  0  0  0  0  0  0  0  0  0  0  0
    5.2500    1.2990    0.0000 C   0  0  0  0  0  0  0  0  0  0  0  0
    6.0000    2.5981    0.0000 C   0  0  0  0  0  0  0  0  0  0  0  0
    7.5000    2.5981    0.0000 F   0  0  0  0  0  0  0  0  0  0  0  0
    5.2500    3.8971    0.0000 C   0  0  0  0  0  0  0  0  0  0  0  0
    6.0000    5.1962    0.0000 N   0  0  0  0  0  0  0  0  0  0  0  0
    5.2500    6.4952    0.0000 C   0  0  0  0  0  0  0  0  0  0  0  0
    6.0000    7.7942    0.0000 C   0  0  0  0  0  0  0  0  0  0  0  0
    5.2500    9.0933    0.0000 C   0  0  0  0  0  0  0  0  0  0  0  0
    3.7500    9.0933    0.0000 C   0  0  0  0  0  0  0  0  0  0  0  0
    3.0000   10.3923    0.0000 N   0  0  0  0  0  0  0  0  0  0  0  0
    3.7500   11.6913    0.0000 C   0  0  0  0  0  0  0  0  0  0  0  0
    3.0000   12.9904    0.0000 C   0  0  0  0  0  0  0  0  0  0  0  0
    1.5000   12.9904    0.0000 N   0  0  0  0  0  0  0  0  0  0  0  0
    0.7500   14.2894    0.0000 C   0  0  0  0  0  0  0  0  0  0  0  0
    1.5000   15.5885    0.0000 C   0  0  0  0  0  0  0  0  0  0  0  0
   -0.7500   14.2894    0.0000 O   0  0  0  0  0  0  0  0  0  0  0  0
    0.7500   11.6913    0.0000 C   0  0  0  0  0  0  0  0  0  0  0  0
    1.5000   10.3923    0.0000 C   0  0  0  0  0  0  0  0  0  0  0  0
    3.0000    7.7942    0.0000 C   0  0  0  0  0  0  0  0  0  0  0  0
    3.7500    6.4952    0.0000 C   0  0  0  0  0  0  0  0  0  0  0  0
    3.0000    5.1962    0.0000 O   0  0  0  0  0  0  0  0  0  0  0  0
    1.5000    5.1962    0.0000 C   0  0  0  0  0  0  0  0  0  0  0  0
    0.7500    3.8971    0.0000 F   0  0  0  0  0  0  0  0  0  0  0  0
    0.7500    6.4952    0.0000 F   0  0  0  0  0  0  0  0  0  0  0  0
    3.7500    3.8971    0.0000 N   0  0  0  0  0  0  0  0  0  0  0  0
  1  2  1  0
  2  3  1  0
  3  4  2  0
  4  5  1  0
  5  6  1  0
  6  7  1  0
  7  8  1  0
  8  9  1  0
  9 10  1  0
 10 11  1  0
 10 12  2  0
  9 13  1  0
 13 14  1  0
  5 15  2  0
 15 16  1  0
 16 17  2  0
 17 18  1  0
 18 19  1  0
 19 20  2  0
 20 21  1  0
 21 22  2  0
 22 23  1  0
 22 24  1  0
 24 25  1  0
 25 26  1  0
 26 27  2  0
 27 28  1  0
 28 29  2  0
 29 30  1  0
 30 31  1  0
 31 32  1  0
 32 33  1  0
 33 34  1  0
 34 35  1  0
 34 36  2  0
 33 37  1  0
 37 38  1  0
 29 39  1  0
 39 40  2  0
 40 41  1  0
 41 42  1  0
 42 43  1  0
 42 44  1  0
 24 45  2  0
 17  3  1  0
 45 19  1  0
 14  6  1  0
 40 26  1  0
 38 30  1  0
M  END
>  <Compound_ID>  (301) 
CHEMBL3939640

>  <Molecule Name>  (301) 
nan

>  <Molecular Weight>  (301) 
628.66

>  <AlogP>  (301) 
4.05

>  <Smiles>  (301) 
COc1cc(N2CCN(C(C)=O)CC2)ccc1Nc1ncc(F)c(Nc2ccc(N3CCN(C(C)=O)CC3)cc2OC(F)F)n1

>  <Standard Type>  (301) 
IC50

>  <Standard Relation>  (301) 
'='

>  <Standard Units>  (301) 
nM

>  <Standard Value>  (301) 
10.0

>  <Assay ChEMBL ID>  (301) 
CHEMBL3887132

>  <Assay Description>  (301) 
Homogeneous Time-resolved fluorescence (HTRF) Assay: In order to measure the inhibitory activity against ALK, a Grainer 96-well round type bottom plate was added with the compounds (2 μl) prepared in Examples 1 to 89, and mixed with ALK enzyme (1 ul) and a peptide substrate (2 μl) with biotin attached thereto for 15 minutes and cultured thereafter. Here, ATP solution (5 μl) was added thereto and kinase reaction was performed at room temperature for 30 minutes. XL 665 (5 μl), to which Streptavidin dissolved in ethylenediaminetetraacetic acid solution was attached, anti-phosphotyrosine antibody (5 μl), to which europium (Eu3+) was attached, were added to a reaction solution to stop the reaction, cultured for 1 hour, and analyzed using Homogeneous Time-resolved fluorescence (HTRF, Cisbio). The result was read by a Wallac Envision 2103 device at the wavelength range of 615/665 nm.

>  <BAO Format ID>  (301) 
BAO_0000357

>  <BAO Label>  (301) 
single protein format

>  <Assay Organism>  (301) 
Homo sapiens

>  <Target ChEMBL ID>  (301) 
CHEMBL4247

>  <Target Name>  (301) 
ALK tyrosine kinase receptor

>  <Target Organism>  (301) 
Homo sapiens

>  <Target Type>  (301) 
SINGLE PROTEIN

>  <Document ChEMBL ID>  (301) 
CHEMBL3886178

>  <Source Description>  (301) 
BindingDB Database

>  <Document Journal>  (301) 
nan

>  <Document Year>  (301) 
2015.0

>  <Active>  (301) 
1.0

>  <bits>  (301) 
<rdkit.DataStructs.cDataStructs.ExplicitBitVect object at 0x000002422F188900>

>  <Group>  (301) 
G2

$$$$

     RDKit          2D

 47 51  0  0  0  0  0  0  0  0999 V2000
    0.5271    8.0861    0.0000 C   0  0  0  0  0  0  0  0  0  0  0  0
   -0.8995    7.6226    0.0000 C   0  0  0  0  0  0  0  0  0  0  0  0
   -1.2114    6.1554    0.0000 C   0  0  0  0  0  0  0  0  0  0  0  0
   -2.6380    5.6918    0.0000 C   0  0  0  0  0  0  0  0  0  0  0  0
   -2.9499    4.2246    0.0000 N   0  0  0  0  0  0  0  0  0  0  0  0
   -1.8351    3.2209    0.0000 C   0  0  0  0  0  0  0  0  0  0  0  0
   -0.4086    3.6844    0.0000 N   0  0  0  0  0  0  0  0  0  0  0  0
    0.7062    2.6807    0.0000 C   0  0  0  0  0  0  0  0  0  0  0  0
    2.1328    3.1443    0.0000 N   0  0  0  0  0  0  0  0  0  0  0  0
    2.4446    4.6115    0.0000 C   0  0  0  0  0  0  0  0  0  0  0  0
    1.3299    5.6152    0.0000 C   0  0  0  0  0  0  0  0  0  0  0  0
    1.6418    7.0824    0.0000 C   0  0  0  0  0  0  0  0  0  0  0  0
    3.0684    7.5459    0.0000 C   0  0  0  0  0  0  0  0  0  0  0  0
    4.1831    6.5422    0.0000 C   0  0  0  0  0  0  0  0  0  0  0  0
    3.8712    5.0750    0.0000 C   0  0  0  0  0  0  0  0  0  0  0  0
    4.9859    4.0713    0.0000 S   0  0  0  0  0  0  0  0  0  0  0  0
    5.9896    5.1860    0.0000 O   0  0  0  0  0  0  0  0  0  0  0  0
    3.9822    2.9566    0.0000 O   0  0  0  0  0  0  0  0  0  0  0  0
    6.1006    3.0676    0.0000 C   0  0  0  0  0  0  0  0  0  0  0  0
    7.5272    3.5312    0.0000 C   0  0  0  0  0  0  0  0  0  0  0  0
    5.7888    1.6004    0.0000 C   0  0  0  0  0  0  0  0  0  0  0  0
    0.3943    1.2135    0.0000 C   0  0  0  0  0  0  0  0  0  0  0  0
    1.2760    0.0000    0.0000 C   0  0  0  0  0  0  0  0  0  0  0  0
    2.7760    0.0000    0.0000 C   0  0  0  0  0  0  0  0  0  0  0  0
    0.3943   -1.2135    0.0000 N   0  0  0  0  0  0  0  0  0  0  0  0
   -1.0323   -0.7500    0.0000 N   0  0  0  0  0  0  0  0  0  0  0  0
   -1.0323    0.7500    0.0000 C   0  0  0  0  0  0  0  0  0  0  0  0
   -2.1470    1.7537    0.0000 N   0  0  0  0  0  0  0  0  0  0  0  0
   -3.7527    6.6955    0.0000 C   0  0  0  0  0  0  0  0  0  0  0  0
   -5.1793    6.2320    0.0000 O   0  0  0  0  0  0  0  0  0  0  0  0
   -6.2940    7.2357    0.0000 C   0  0  0  0  0  0  0  0  0  0  0  0
   -7.7206    6.7722    0.0000 C   0  0  0  0  0  0  0  0  0  0  0  0
   -5.9821    8.7029    0.0000 C   0  0  0  0  0  0  0  0  0  0  0  0
   -3.4408    8.1628    0.0000 C   0  0  0  0  0  0  0  0  0  0  0  0
   -2.0143    8.6263    0.0000 C   0  0  0  0  0  0  0  0  0  0  0  0
   -1.7024   10.0935    0.0000 C   0  0  0  0  0  0  0  0  0  0  0  0
   -0.2758   10.5570    0.0000 C   0  0  0  0  0  0  0  0  0  0  0  0
    0.0361   12.0242    0.0000 C   0  0  0  0  0  0  0  0  0  0  0  0
   -1.0786   13.0279    0.0000 N   0  0  0  0  0  0  0  0  0  0  0  0
   -0.7668   14.4952    0.0000 C   0  0  0  0  0  0  0  0  0  0  0  0
   -1.8815   15.4989    0.0000 O   0  0  0  0  0  0  0  0  0  0  0  0
    0.6598   14.9587    0.0000 C   0  0  0  0  0  0  0  0  0  0  0  0
    0.9717   16.4259    0.0000 N   0  0  0  0  0  0  0  0  0  0  0  0
    2.3983   16.8894    0.0000 C   0  0  0  0  0  0  0  0  0  0  0  0
   -0.1430   17.4296    0.0000 C   0  0  0  0  0  0  0  0  0  0  0  0
   -2.5052   12.5644    0.0000 C   0  0  0  0  0  0  0  0  0  0  0  0
   -2.8171   11.0972    0.0000 C   0  0  0  0  0  0  0  0  0  0  0  0
  1  2  1  0
  2  3  2  0
  3  4  1  0
  4  5  1  0
  5  6  1  0
  6  7  1  0
  7  8  2  0
  8  9  1  0
  9 10  1  0
 10 11  2  0
 11 12  1  0
 12 13  2  0
 13 14  1  0
 14 15  2  0
 15 16  1  0
 16 17  2  0
 16 18  2  0
 16 19  1  0
 19 20  1  0
 19 21  1  0
  8 22  1  0
 22 23  2  0
 23 24  1  0
 23 25  1  0
 25 26  1  0
 26 27  2  0
 27 28  1  0
  4 29  2  0
 29 30  1  0
 30 31  1  0
 31 32  1  0
 31 33  1  0
 29 34  1  0
 34 35  2  0
 35 36  1  0
 36 37  1  0
 37 38  1  0
 38 39  1  0
 39 40  1  0
 40 41  2  0
 40 42  1  0
 42 43  1  0
 43 44  1  0
 43 45  1  0
 39 46  1  0
 46 47  1  0
 35  2  1  0
 47 36  1  0
 28  6  2  0
 15 10  1  0
 27 22  1  0
M  END
>  <Compound_ID>  (302) 
CHEMBL3651848

>  <Molecule Name>  (302) 
nan

>  <Molecular Weight>  (302) 
662.86

>  <AlogP>  (302) 
5.69

>  <Smiles>  (302) 
Cc1cc(Nc2nc(Nc3ccccc3S(=O)(=O)C(C)C)c3c(C)[nH]nc3n2)c(OC(C)C)cc1C1CCN(C(=O)CN(C)C)CC1

>  <Standard Type>  (302) 
IC50

>  <Standard Relation>  (302) 
'='

>  <Standard Units>  (302) 
nM

>  <Standard Value>  (302) 
7.0

>  <Assay ChEMBL ID>  (302) 
CHEMBL3705165

>  <Assay Description>  (302) 
Enzyme Assay: The inhibition of ALK tyrosine kinase activity may be demonstrated using known methods, for example using the recombinant kinase domain of the ALK in analogy to the VEGF-R kinase assay described in J. Wood et al. Cancer Res. 60, 2178-2189 (2000).

>  <BAO Format ID>  (302) 
BAO_0000357

>  <BAO Label>  (302) 
single protein format

>  <Assay Organism>  (302) 
Homo sapiens

>  <Target ChEMBL ID>  (302) 
CHEMBL4247

>  <Target Name>  (302) 
ALK tyrosine kinase receptor

>  <Target Organism>  (302) 
Homo sapiens

>  <Target Type>  (302) 
SINGLE PROTEIN

>  <Document ChEMBL ID>  (302) 
CHEMBL3638924

>  <Source Description>  (302) 
BindingDB Database

>  <Document Journal>  (302) 
nan

>  <Document Year>  (302) 
2013.0

>  <Active>  (302) 
1.0

>  <bits>  (302) 
<rdkit.DataStructs.cDataStructs.ExplicitBitVect object at 0x000002422F188200>

>  <Group>  (302) 
G2

$$$$

     RDKit          2D

 39 44  0  0  0  0  0  0  0  0999 V2000
   -6.8516   -6.6578    0.0000 C   0  0  0  0  0  0  0  0  0  0  0  0
   -5.6381   -7.5395    0.0000 C   0  0  0  0  0  0  0  0  0  0  0  0
   -4.2677   -6.9294    0.0000 C   0  0  0  0  0  0  0  0  0  0  0  0
   -4.1110   -5.4376    0.0000 C   0  0  0  0  0  0  0  0  0  0  0  0
   -2.7406   -4.8275    0.0000 C   0  0  0  0  0  0  0  0  0  0  0  0
   -1.5271   -5.7092    0.0000 C   0  0  0  0  0  0  0  0  0  0  0  0
   -1.6839   -7.2010    0.0000 C   0  0  0  0  0  0  0  0  0  0  0  0
   -3.0542   -7.8111    0.0000 C   0  0  0  0  0  0  0  0  0  0  0  0
   -3.2110   -9.3029    0.0000 N   0  0  0  0  0  0  0  0  0  0  0  0
   -1.9975  -10.1845    0.0000 C   0  0  0  0  0  0  0  0  0  0  0  0
   -0.6272   -9.5744    0.0000 O   0  0  0  0  0  0  0  0  0  0  0  0
   -2.1543  -11.6763    0.0000 N   0  0  0  0  0  0  0  0  0  0  0  0
   -3.5246  -12.2864    0.0000 C   0  0  0  0  0  0  0  0  0  0  0  0
   -3.6814  -13.7782    0.0000 C   0  0  0  0  0  0  0  0  0  0  0  0
   -2.4679  -14.6599    0.0000 C   0  0  0  0  0  0  0  0  0  0  0  0
   -2.6247  -16.1517    0.0000 N   0  0  0  0  0  0  0  0  0  0  0  0
   -3.9950  -16.7618    0.0000 C   0  0  0  0  0  0  0  0  0  0  0  0
   -4.1518  -18.2536    0.0000 C   0  0  0  0  0  0  0  0  0  0  0  0
   -2.9382  -19.1352    0.0000 O   0  0  0  0  0  0  0  0  0  0  0  0
   -1.5679  -18.5251    0.0000 C   0  0  0  0  0  0  0  0  0  0  0  0
   -1.4111  -17.0333    0.0000 C   0  0  0  0  0  0  0  0  0  0  0  0
   -1.0975  -14.0498    0.0000 C   0  0  0  0  0  0  0  0  0  0  0  0
   -0.9408  -12.5580    0.0000 C   0  0  0  0  0  0  0  0  0  0  0  0
   -0.1568   -5.0991    0.0000 C   0  0  0  0  0  0  0  0  0  0  0  0
    1.3396   -4.9944    0.0000 C   0  0  0  0  0  0  0  0  0  0  0  0
    0.2061   -6.5545    0.0000 C   0  0  0  0  0  0  0  0  0  0  0  0
   -0.0000   -3.6073    0.0000 C   0  0  0  0  0  0  0  0  0  0  0  0
    1.2135   -2.7256    0.0000 N   0  0  0  0  0  0  0  0  0  0  0  0
    0.7500   -1.2990    0.0000 C   0  0  0  0  0  0  0  0  0  0  0  0
    1.5000    0.0000    0.0000 C   0  0  0  0  0  0  0  0  0  0  0  0
    0.7500    1.2990    0.0000 C   0  0  0  0  0  0  0  0  0  0  0  0
    1.5000    2.5981    0.0000 C   0  0  0  0  0  0  0  0  0  0  0  0
    2.2500    3.8971    0.0000 N   0  0  0  0  0  0  0  0  0  0  0  0
   -0.7500    1.2990    0.0000 C   0  0  0  0  0  0  0  0  0  0  0  0
   -1.5000    0.0000    0.0000 C   0  0  0  0  0  0  0  0  0  0  0  0
   -0.7500   -1.2990    0.0000 C   0  0  0  0  0  0  0  0  0  0  0  0
   -1.2135   -2.7256    0.0000 C   0  0  0  0  0  0  0  0  0  0  0  0
   -2.5838   -3.3357    0.0000 C   0  0  0  0  0  0  0  0  0  0  0  0
   -3.7974   -2.4540    0.0000 O   0  0  0  0  0  0  0  0  0  0  0  0
  1  2  1  0
  2  3  1  0
  3  4  2  0
  4  5  1  0
  5  6  2  0
  6  7  1  0
  7  8  2  0
  8  9  1  0
  9 10  1  0
 10 11  2  0
 10 12  1  0
 12 13  1  0
 13 14  1  0
 14 15  1  0
 15 16  1  0
 16 17  1  0
 17 18  1  0
 18 19  1  0
 19 20  1  0
 20 21  1  0
 15 22  1  0
 22 23  1  0
  6 24  1  0
 24 25  1  0
 24 26  1  0
 24 27  1  0
 27 28  1  0
 28 29  1  0
 29 30  2  0
 30 31  1  0
 31 32  1  0
 32 33  3  0
 31 34  2  0
 34 35  1  0
 35 36  2  0
 36 37  1  0
 37 38  1  0
 38 39  2  0
  8  3  1  0
 23 12  1  0
 37 27  2  0
 38  5  1  0
 21 16  1  0
 36 29  1  0
M  END
>  <Compound_ID>  (303) 
CHEMBL3736073

>  <Molecule Name>  (303) 
nan

>  <Molecular Weight>  (303) 
525.65

>  <AlogP>  (303) 
4.80

>  <Smiles>  (303) 
CCc1cc2c(cc1NC(=O)N1CCC(N3CCOCC3)CC1)C(C)(C)c1[nH]c3cc(C#N)ccc3c1C2=O

>  <Standard Type>  (303) 
IC50

>  <Standard Relation>  (303) 
'='

>  <Standard Units>  (303) 
nM

>  <Standard Value>  (303) 
32.0

>  <Assay ChEMBL ID>  (303) 
CHEMBL3738493

>  <Assay Description>  (303) 
Inhibition of recombinant ALK (unknown origin) using poly (Glu, Tyr)4:1 substrate incubated for 60 mins by ELISA

>  <BAO Format ID>  (303) 
BAO_0000357

>  <BAO Label>  (303) 
single protein format

>  <Assay Organism>  (303) 
Homo sapiens

>  <Target ChEMBL ID>  (303) 
CHEMBL4247

>  <Target Name>  (303) 
ALK tyrosine kinase receptor

>  <Target Organism>  (303) 
Homo sapiens

>  <Target Type>  (303) 
SINGLE PROTEIN

>  <Document ChEMBL ID>  (303) 
CHEMBL3734710

>  <Source Description>  (303) 
Scientific Literature

>  <Document Journal>  (303) 
Eur J Med Chem

>  <Document Year>  (303) 
2015.0

>  <Active>  (303) 
1.0

>  <bits>  (303) 
<rdkit.DataStructs.cDataStructs.ExplicitBitVect object at 0x000002422F18AAB0>

>  <Group>  (303) 
G2

$$$$

     RDKit          2D

 35 38  0  0  0  0  0  0  0  0999 V2000
   -3.7500   -6.4952    0.0000 C   0  0  0  0  0  0  0  0  0  0  0  0
   -3.0000   -5.1962    0.0000 C   0  0  0  0  0  0  0  0  0  0  0  0
   -3.7500   -3.8971    0.0000 C   0  0  0  0  0  0  0  0  0  0  0  0
   -1.5000   -5.1962    0.0000 O   0  0  0  0  0  0  0  0  0  0  0  0
   -0.7500   -3.8971    0.0000 C   0  0  0  0  0  0  0  0  0  0  0  0
   -1.5000   -2.5981    0.0000 C   0  0  0  0  0  0  0  0  0  0  0  0
   -0.7500   -1.2990    0.0000 C   0  0  0  0  0  0  0  0  0  0  0  0
    0.7500   -1.2990    0.0000 C   0  0  0  0  0  0  0  0  0  0  0  0
    1.5000   -2.5981    0.0000 C   0  0  0  0  0  0  0  0  0  0  0  0
    0.7500   -3.8971    0.0000 C   0  0  0  0  0  0  0  0  0  0  0  0
    1.5000   -5.1962    0.0000 N   0  0  0  0  0  0  0  0  0  0  0  0
    0.7500   -6.4952    0.0000 C   0  0  0  0  0  0  0  0  0  0  0  0
   -0.7500   -6.4952    0.0000 N   0  0  0  0  0  0  0  0  0  0  0  0
   -1.5000   -7.7942    0.0000 C   0  0  0  0  0  0  0  0  0  0  0  0
   -0.7500   -9.0933    0.0000 C   0  0  0  0  0  0  0  0  0  0  0  0
   -1.5000  -10.3923    0.0000 Cl  0  0  0  0  0  0  0  0  0  0  0  0
    0.7500   -9.0933    0.0000 C   0  0  0  0  0  0  0  0  0  0  0  0
    1.5000  -10.3923    0.0000 N   0  0  0  0  0  0  0  0  0  0  0  0
    3.0000  -10.3923    0.0000 C   0  0  0  0  0  0  0  0  0  0  0  0
    3.7500   -9.0933    0.0000 C   0  0  0  0  0  0  0  0  0  0  0  0
    5.2500   -9.0933    0.0000 C   0  0  0  0  0  0  0  0  0  0  0  0
    6.0000  -10.3923    0.0000 C   0  0  0  0  0  0  0  0  0  0  0  0
    5.2500  -11.6913    0.0000 C   0  0  0  0  0  0  0  0  0  0  0  0
    3.7500  -11.6913    0.0000 C   0  0  0  0  0  0  0  0  0  0  0  0
    3.0000  -12.9904    0.0000 S   0  0  0  0  0  0  0  0  0  0  0  0
    1.7010  -12.2404    0.0000 O   0  0  0  0  0  0  0  0  0  0  0  0
    4.2990  -13.7404    0.0000 O   0  0  0  0  0  0  0  0  0  0  0  0
    2.2500  -14.2894    0.0000 C   0  0  0  0  0  0  0  0  0  0  0  0
    0.7500  -14.2894    0.0000 C   0  0  0  0  0  0  0  0  0  0  0  0
    3.0000  -15.5885    0.0000 C   0  0  0  0  0  0  0  0  0  0  0  0
    1.5000   -7.7942    0.0000 N   0  0  0  0  0  0  0  0  0  0  0  0
    1.5000    0.0000    0.0000 C   0  0  0  0  0  0  0  0  0  0  0  0
    0.7500    1.2990    0.0000 C   0  0  0  0  0  0  0  0  0  0  0  0
   -0.7500    1.2990    0.0000 N   0  0  0  0  0  0  0  0  0  0  0  0
   -1.5000    0.0000    0.0000 C   0  0  0  0  0  0  0  0  0  0  0  0
  1  2  1  0
  2  3  1  0
  2  4  1  0
  4  5  1  0
  5  6  2  0
  6  7  1  0
  7  8  2  0
  8  9  1  0
  9 10  2  0
 10 11  1  0
 11 12  1  0
 12 13  2  0
 13 14  1  0
 14 15  2  0
 15 16  1  0
 15 17  1  0
 17 18  1  0
 18 19  1  0
 19 20  2  0
 20 21  1  0
 21 22  2  0
 22 23  1  0
 23 24  2  0
 24 25  1  0
 25 26  2  0
 25 27  2  0
 25 28  1  0
 28 29  1  0
 28 30  1  0
 17 31  2  0
  8 32  1  0
 32 33  1  0
 33 34  1  0
 34 35  1  0
 10  5  1  0
 31 12  1  0
 35  7  1  0
 24 19  1  0
M  END
>  <Compound_ID>  (304) 
CHEMBL4758611

>  <Molecule Name>  (304) 
nan

>  <Molecular Weight>  (304) 
516.07

>  <AlogP>  (304) 
5.23

>  <Smiles>  (304) 
CC(C)Oc1cc2c(cc1Nc1ncc(Cl)c(Nc3ccccc3S(=O)(=O)C(C)C)n1)CCNC2

>  <Standard Type>  (304) 
IC50

>  <Standard Relation>  (304) 
'='

>  <Standard Units>  (304) 
nM

>  <Standard Value>  (304) 
13.0

>  <Assay ChEMBL ID>  (304) 
CHEMBL4716189

>  <Assay Description>  (304) 
Inhibition of crizotinib-resistant ALK L1196M mutant (unknown origin) using peptide substrate incubated for 30 mins in presence of ATP by fluorescence assay

>  <BAO Format ID>  (304) 
BAO_0000357

>  <BAO Label>  (304) 
single protein format

>  <Assay Organism>  (304) 
Homo sapiens

>  <Target ChEMBL ID>  (304) 
CHEMBL4247

>  <Target Name>  (304) 
ALK tyrosine kinase receptor

>  <Target Organism>  (304) 
Homo sapiens

>  <Target Type>  (304) 
SINGLE PROTEIN

>  <Document ChEMBL ID>  (304) 
CHEMBL4715694

>  <Source Description>  (304) 
Scientific Literature

>  <Document Journal>  (304) 
Bioorg Med Chem

>  <Document Year>  (304) 
2016.0

>  <Active>  (304) 
1.0

>  <bits>  (304) 
<rdkit.DataStructs.cDataStructs.ExplicitBitVect object at 0x000002422F18ADC0>

>  <Group>  (304) 
G2

$$$$

     RDKit          2D

 41 45  0  0  0  0  0  0  0  0999 V2000
    6.2286   -2.5981    0.0000 C   0  0  0  0  0  0  0  0  0  0  0  0
    5.4786   -1.2990    0.0000 N   0  0  0  0  0  0  0  0  0  0  0  0
    3.9786   -1.2990    0.0000 C   0  0  0  0  0  0  0  0  0  0  0  0
    3.2286   -2.5981    0.0000 O   0  0  0  0  0  0  0  0  0  0  0  0
    3.2286   -0.0000    0.0000 C   0  0  0  0  0  0  0  0  0  0  0  0
    1.7286    0.0000    0.0000 N   0  0  0  0  0  0  0  0  0  0  0  0
    1.0777    1.3515    0.0000 C   0  0  0  0  0  0  0  0  0  0  0  0
   -0.3846    1.6852    0.0000 C   0  0  0  0  0  0  0  0  0  0  0  0
   -1.5574    0.7500    0.0000 C   0  0  0  0  0  0  0  0  0  0  0  0
   -2.8564    1.5000    0.0000 C   0  0  0  0  0  0  0  0  0  0  0  0
   -4.1555    0.7500    0.0000 C   0  0  0  0  0  0  0  0  0  0  0  0
   -5.4545    1.5000    0.0000 N   0  0  0  0  0  0  0  0  0  0  0  0
   -5.4545    3.0000    0.0000 C   0  0  0  0  0  0  0  0  0  0  0  0
   -4.1555    3.7500    0.0000 N   0  0  0  0  0  0  0  0  0  0  0  0
   -4.1555    5.2500    0.0000 C   0  0  0  0  0  0  0  0  0  0  0  0
   -5.4545    6.0000    0.0000 C   0  0  0  0  0  0  0  0  0  0  0  0
   -5.4545    7.5000    0.0000 Cl  0  0  0  0  0  0  0  0  0  0  0  0
   -6.7535    5.2500    0.0000 C   0  0  0  0  0  0  0  0  0  0  0  0
   -8.0526    6.0000    0.0000 N   0  0  0  0  0  0  0  0  0  0  0  0
   -9.3516    5.2500    0.0000 C   0  0  0  0  0  0  0  0  0  0  0  0
  -10.6507    6.0000    0.0000 C   0  0  0  0  0  0  0  0  0  0  0  0
  -11.9497    5.2500    0.0000 C   0  0  0  0  0  0  0  0  0  0  0  0
  -11.9497    3.7500    0.0000 C   0  0  0  0  0  0  0  0  0  0  0  0
  -13.2487    3.0000    0.0000 N   0  0  0  0  0  0  0  0  0  0  0  0
  -14.5478    3.7500    0.0000 C   0  0  0  0  0  0  0  0  0  0  0  0
  -15.8468    3.0000    0.0000 C   0  0  0  0  0  0  0  0  0  0  0  0
  -15.8468    1.5000    0.0000 O   0  0  0  0  0  0  0  0  0  0  0  0
  -14.5478    0.7500    0.0000 C   0  0  0  0  0  0  0  0  0  0  0  0
  -13.2487    1.5000    0.0000 C   0  0  0  0  0  0  0  0  0  0  0  0
  -10.6507    3.0000    0.0000 C   0  0  0  0  0  0  0  0  0  0  0  0
   -9.3516    3.7500    0.0000 C   0  0  0  0  0  0  0  0  0  0  0  0
   -8.0526    3.0000    0.0000 O   0  0  0  0  0  0  0  0  0  0  0  0
   -8.0526    1.5000    0.0000 C   0  0  0  0  0  0  0  0  0  0  0  0
   -6.7535    3.7500    0.0000 N   0  0  0  0  0  0  0  0  0  0  0  0
   -4.1555   -0.7500    0.0000 C   0  0  0  0  0  0  0  0  0  0  0  0
   -5.4545   -1.5000    0.0000 O   0  0  0  0  0  0  0  0  0  0  0  0
   -5.4545   -3.0000    0.0000 C   0  0  0  0  0  0  0  0  0  0  0  0
   -2.8564   -1.5000    0.0000 C   0  0  0  0  0  0  0  0  0  0  0  0
   -1.5574   -0.7500    0.0000 C   0  0  0  0  0  0  0  0  0  0  0  0
   -0.3846   -1.6852    0.0000 C   0  0  0  0  0  0  0  0  0  0  0  0
    1.0777   -1.3515    0.0000 C   0  0  0  0  0  0  0  0  0  0  0  0
  1  2  1  0
  2  3  1  0
  3  4  2  0
  3  5  1  0
  5  6  1  0
  6  7  1  0
  7  8  1  0
  8  9  1  0
  9 10  2  0
 10 11  1  0
 11 12  1  0
 12 13  1  0
 13 14  2  0
 14 15  1  0
 15 16  2  0
 16 17  1  0
 16 18  1  0
 18 19  1  0
 19 20  1  0
 20 21  2  0
 21 22  1  0
 22 23  2  0
 23 24  1  0
 24 25  1  0
 25 26  1  0
 26 27  1  0
 27 28  1  0
 28 29  1  0
 23 30  1  0
 30 31  2  0
 31 32  1  0
 32 33  1  0
 18 34  2  0
 11 35  2  0
 35 36  1  0
 36 37  1  0
 35 38  1  0
 38 39  2  0
 39 40  1  0
 40 41  1  0
 41  6  1  0
 39  9  1  0
 34 13  1  0
 31 20  1  0
 29 24  1  0
M  END
>  <Compound_ID>  (305) 
CHEMBL1642262

>  <Molecule Name>  (305) 
nan

>  <Molecular Weight>  (305) 
582.11

>  <AlogP>  (305) 
3.62

>  <Smiles>  (305) 
CNC(=O)CN1CCc2cc(Nc3ncc(Cl)c(Nc4ccc(N5CCOCC5)cc4OC)n3)c(OC)cc2CC1

>  <Standard Type>  (305) 
IC50

>  <Standard Relation>  (305) 
'='

>  <Standard Units>  (305) 
nM

>  <Standard Value>  (305) 
6.0

>  <Assay ChEMBL ID>  (305) 
CHEMBL1648480

>  <Assay Description>  (305) 
Inhibition of ALK

>  <BAO Format ID>  (305) 
BAO_0000357

>  <BAO Label>  (305) 
single protein format

>  <Assay Organism>  (305) 
None

>  <Target ChEMBL ID>  (305) 
CHEMBL4247

>  <Target Name>  (305) 
ALK tyrosine kinase receptor

>  <Target Organism>  (305) 
Homo sapiens

>  <Target Type>  (305) 
SINGLE PROTEIN

>  <Document ChEMBL ID>  (305) 
CHEMBL1641404

>  <Source Description>  (305) 
Scientific Literature

>  <Document Journal>  (305) 
Bioorg Med Chem Lett

>  <Document Year>  (305) 
2011.0

>  <Active>  (305) 
1.0

>  <bits>  (305) 
<rdkit.DataStructs.cDataStructs.ExplicitBitVect object at 0x000002422F18BC30>

>  <Group>  (305) 
G2

$$$$

     RDKit          2D

 39 43  0  0  0  0  0  0  0  0999 V2000
    2.8629   12.5431    0.0000 C   0  0  0  0  0  0  0  0  0  0  0  0
    4.2962   12.9852    0.0000 C   0  0  0  0  0  0  0  0  0  0  0  0
    4.6300   14.4476    0.0000 C   0  0  0  0  0  0  0  0  0  0  0  0
    5.3958   11.9650    0.0000 S   0  0  0  0  0  0  0  0  0  0  0  0
    4.3756   10.8654    0.0000 O   0  0  0  0  0  0  0  0  0  0  0  0
    6.4161   13.0645    0.0000 O   0  0  0  0  0  0  0  0  0  0  0  0
    6.4954   10.9447    0.0000 C   0  0  0  0  0  0  0  0  0  0  0  0
    7.9288   11.3868    0.0000 C   0  0  0  0  0  0  0  0  0  0  0  0
    9.0283   10.3666    0.0000 C   0  0  0  0  0  0  0  0  0  0  0  0
    8.6945    8.9042    0.0000 C   0  0  0  0  0  0  0  0  0  0  0  0
    7.2612    8.4620    0.0000 C   0  0  0  0  0  0  0  0  0  0  0  0
    6.1616    9.4823    0.0000 C   0  0  0  0  0  0  0  0  0  0  0  0
    4.7283    9.0402    0.0000 N   0  0  0  0  0  0  0  0  0  0  0  0
    4.3945    7.5778    0.0000 C   0  0  0  0  0  0  0  0  0  0  0  0
    2.9611    7.1357    0.0000 N   0  0  0  0  0  0  0  0  0  0  0  0
    2.6273    5.6733    0.0000 C   0  0  0  0  0  0  0  0  0  0  0  0
    1.1940    5.2311    0.0000 N   0  0  0  0  0  0  0  0  0  0  0  0
    0.8602    3.7687    0.0000 C   0  0  0  0  0  0  0  0  0  0  0  0
   -0.5191    3.1792    0.0000 N   0  0  0  0  0  0  0  0  0  0  0  0
   -0.3846    1.6852    0.0000 C   0  0  0  0  0  0  0  0  0  0  0  0
    1.0777    1.3515    0.0000 C   0  0  0  0  0  0  0  0  0  0  0  0
    1.8471    2.6391    0.0000 S   0  0  0  0  0  0  0  0  0  0  0  0
    1.7286    0.0000    0.0000 C   0  0  0  0  0  0  0  0  0  0  0  0
    1.0777   -1.3515    0.0000 C   0  0  0  0  0  0  0  0  0  0  0  0
   -0.3846   -1.6852    0.0000 N   0  0  0  0  0  0  0  0  0  0  0  0
   -0.7184   -3.1476    0.0000 C   0  0  0  0  0  0  0  0  0  0  0  0
    0.3812   -4.1679    0.0000 O   0  0  0  0  0  0  0  0  0  0  0  0
   -2.1518   -3.5898    0.0000 C   0  0  0  0  0  0  0  0  0  0  0  0
   -3.2514   -2.5695    0.0000 C   0  0  0  0  0  0  0  0  0  0  0  0
   -4.6847   -3.0116    0.0000 C   0  0  0  0  0  0  0  0  0  0  0  0
   -5.0185   -4.4740    0.0000 O   0  0  0  0  0  0  0  0  0  0  0  0
   -3.9189   -5.4943    0.0000 C   0  0  0  0  0  0  0  0  0  0  0  0
   -2.4856   -5.0522    0.0000 C   0  0  0  0  0  0  0  0  0  0  0  0
   -1.5574   -0.7500    0.0000 C   0  0  0  0  0  0  0  0  0  0  0  0
   -1.5574    0.7500    0.0000 C   0  0  0  0  0  0  0  0  0  0  0  0
    3.7269    4.6530    0.0000 N   0  0  0  0  0  0  0  0  0  0  0  0
    5.1603    5.0951    0.0000 C   0  0  0  0  0  0  0  0  0  0  0  0
    5.4940    6.5575    0.0000 C   0  0  0  0  0  0  0  0  0  0  0  0
    6.9274    6.9997    0.0000 Cl  0  0  0  0  0  0  0  0  0  0  0  0
  1  2  1  0
  2  3  1  0
  2  4  1  0
  4  5  2  0
  4  6  2  0
  4  7  1  0
  7  8  2  0
  8  9  1  0
  9 10  2  0
 10 11  1  0
 11 12  2  0
 12 13  1  0
 13 14  1  0
 14 15  2  0
 15 16  1  0
 16 17  1  0
 17 18  1  0
 18 19  2  0
 19 20  1  0
 20 21  2  0
 21 22  1  0
 21 23  1  0
 23 24  1  0
 24 25  1  0
 25 26  1  0
 26 27  2  0
 26 28  1  0
 28 29  1  0
 29 30  1  0
 30 31  1  0
 31 32  1  0
 32 33  1  0
 25 34  1  0
 34 35  1  0
 16 36  2  0
 36 37  1  0
 37 38  2  0
 38 39  1  0
 12  7  1  0
 38 14  1  0
 22 18  1  0
 33 28  1  0
 35 20  1  0
M  END
>  <Compound_ID>  (306) 
CHEMBL3330859

>  <Molecule Name>  (306) 
nan

>  <Molecular Weight>  (306) 
591.16

>  <AlogP>  (306) 
4.61

>  <Smiles>  (306) 
CC(C)S(=O)(=O)c1ccccc1Nc1nc(Nc2nc3c(s2)CCN(C(=O)C2CCOCC2)CC3)ncc1Cl

>  <Standard Type>  (306) 
IC50

>  <Standard Relation>  (306) 
'='

>  <Standard Units>  (306) 
nM

>  <Standard Value>  (306) 
12.4

>  <Assay ChEMBL ID>  (306) 
CHEMBL3383505

>  <Assay Description>  (306) 
Inhibition of purified ALK (unknown origin) after 60 mins by ELISA kinase assay

>  <BAO Format ID>  (306) 
BAO_0000357

>  <BAO Label>  (306) 
single protein format

>  <Assay Organism>  (306) 
Homo sapiens

>  <Target ChEMBL ID>  (306) 
CHEMBL4247

>  <Target Name>  (306) 
ALK tyrosine kinase receptor

>  <Target Organism>  (306) 
Homo sapiens

>  <Target Type>  (306) 
SINGLE PROTEIN

>  <Document ChEMBL ID>  (306) 
CHEMBL3352334

>  <Source Description>  (306) 
Scientific Literature

>  <Document Journal>  (306) 
Eur J Med Chem

>  <Document Year>  (306) 
2014.0

>  <Active>  (306) 
1.0

>  <bits>  (306) 
<rdkit.DataStructs.cDataStructs.ExplicitBitVect object at 0x000002422F18BE60>

>  <Group>  (306) 
G2

$$$$

     RDKit          2D

 32 35  0  0  0  0  0  0  0  0999 V2000
    5.2500  -11.6913    0.0000 C   0  0  0  0  0  0  0  0  0  0  0  0
    3.7500  -11.6913    0.0000 N   0  0  0  0  0  0  0  0  0  0  0  0
    3.0000  -10.3923    0.0000 C   0  0  0  0  0  0  0  0  0  0  0  0
    3.7500   -9.0933    0.0000 O   0  0  0  0  0  0  0  0  0  0  0  0
    1.5000  -10.3923    0.0000 C   0  0  0  0  0  0  0  0  0  0  0  0
    0.7500  -11.6913    0.0000 C   0  0  0  0  0  0  0  0  0  0  0  0
   -0.7500  -11.6913    0.0000 C   0  0  0  0  0  0  0  0  0  0  0  0
   -1.5000  -10.3923    0.0000 C   0  0  0  0  0  0  0  0  0  0  0  0
   -0.7500   -9.0933    0.0000 C   0  0  0  0  0  0  0  0  0  0  0  0
    0.7500   -9.0933    0.0000 C   0  0  0  0  0  0  0  0  0  0  0  0
    1.5000   -7.7942    0.0000 N   0  0  0  0  0  0  0  0  0  0  0  0
    0.7500   -6.4952    0.0000 C   0  0  0  0  0  0  0  0  0  0  0  0
    1.5000   -5.1962    0.0000 N   0  0  0  0  0  0  0  0  0  0  0  0
    0.7500   -3.8971    0.0000 C   0  0  0  0  0  0  0  0  0  0  0  0
    1.5000   -2.5981    0.0000 N   0  0  0  0  0  0  0  0  0  0  0  0
    0.7500   -1.2990    0.0000 C   0  0  0  0  0  0  0  0  0  0  0  0
    1.5000    0.0000    0.0000 C   0  0  0  0  0  0  0  0  0  0  0  0
    0.7500    1.2990    0.0000 C   0  0  0  0  0  0  0  0  0  0  0  0
   -0.7500    1.2990    0.0000 C   0  0  0  0  0  0  0  0  0  0  0  0
   -1.5000    0.0000    0.0000 C   0  0  0  0  0  0  0  0  0  0  0  0
   -0.7500   -1.2990    0.0000 C   0  0  0  0  0  0  0  0  0  0  0  0
   -2.9832   -0.2236    0.0000 C   0  0  0  0  0  0  0  0  0  0  0  0
   -4.0828    0.7967    0.0000 C   0  0  0  0  0  0  0  0  0  0  0  0
   -3.9707    2.2925    0.0000 C   0  0  0  0  0  0  0  0  0  0  0  0
   -2.7314    3.1375    0.0000 C   0  0  0  0  0  0  0  0  0  0  0  0
   -2.9549    4.6207    0.0000 O   0  0  0  0  0  0  0  0  0  0  0  0
   -1.2980    2.6953    0.0000 N   0  0  0  0  0  0  0  0  0  0  0  0
   -0.2778    3.7949    0.0000 C   0  0  0  0  0  0  0  0  0  0  0  0
   -0.7500   -3.8971    0.0000 N   0  0  0  0  0  0  0  0  0  0  0  0
   -1.5000   -5.1962    0.0000 C   0  0  0  0  0  0  0  0  0  0  0  0
   -0.7500   -6.4952    0.0000 C   0  0  0  0  0  0  0  0  0  0  0  0
   -1.5000   -7.7942    0.0000 Cl  0  0  0  0  0  0  0  0  0  0  0  0
  1  2  1  0
  2  3  1  0
  3  4  2  0
  3  5  1  0
  5  6  2  0
  6  7  1  0
  7  8  2  0
  8  9  1  0
  9 10  2  0
 10 11  1  0
 11 12  1  0
 12 13  2  0
 13 14  1  0
 14 15  1  0
 15 16  1  0
 16 17  2  0
 17 18  1  0
 18 19  2  0
 19 20  1  0
 20 21  2  0
 20 22  1  0
 22 23  1  0
 23 24  1  0
 24 25  1  0
 25 26  2  0
 25 27  1  0
 27 28  1  0
 14 29  2  0
 29 30  1  0
 30 31  2  0
 31 32  1  0
 10  5  1  0
 31 12  1  0
 21 16  1  0
 27 19  1  0
M  END
>  <Compound_ID>  (307) 
CHEMBL1644799

>  <Molecule Name>  (307) 
nan

>  <Molecular Weight>  (307) 
450.93

>  <AlogP>  (307) 
4.28

>  <Smiles>  (307) 
CNC(=O)c1ccccc1Nc1nc(Nc2ccc3c(c2)CCCC(=O)N3C)ncc1Cl

>  <Standard Type>  (307) 
IC50

>  <Standard Relation>  (307) 
'='

>  <Standard Units>  (307) 
nM

>  <Standard Value>  (307) 
15.0

>  <Assay ChEMBL ID>  (307) 
CHEMBL2044751

>  <Assay Description>  (307) 
Inhibition of ALK

>  <BAO Format ID>  (307) 
BAO_0000357

>  <BAO Label>  (307) 
single protein format

>  <Assay Organism>  (307) 
None

>  <Target ChEMBL ID>  (307) 
CHEMBL4247

>  <Target Name>  (307) 
ALK tyrosine kinase receptor

>  <Target Organism>  (307) 
Homo sapiens

>  <Target Type>  (307) 
SINGLE PROTEIN

>  <Document ChEMBL ID>  (307) 
CHEMBL2040771

>  <Source Description>  (307) 
Scientific Literature

>  <Document Journal>  (307) 
ACS Med Chem Lett

>  <Document Year>  (307) 
2010.0

>  <Active>  (307) 
1.0

>  <bits>  (307) 
<rdkit.DataStructs.cDataStructs.ExplicitBitVect object at 0x000002422F189000>

>  <Group>  (307) 
G2

$$$$

     RDKit          2D

 37 40  0  0  0  0  0  0  0  0999 V2000
   -3.0000   -5.1962    0.0000 C   0  0  0  0  0  0  0  0  0  0  0  0
   -1.5000   -5.1962    0.0000 O   0  0  0  0  0  0  0  0  0  0  0  0
   -0.7500   -3.8971    0.0000 C   0  0  0  0  0  0  0  0  0  0  0  0
   -1.5000   -2.5981    0.0000 C   0  0  0  0  0  0  0  0  0  0  0  0
   -0.7500   -1.2990    0.0000 C   0  0  0  0  0  0  0  0  0  0  0  0
    0.7500   -1.2990    0.0000 C   0  0  0  0  0  0  0  0  0  0  0  0
    1.5000   -2.5981    0.0000 C   0  0  0  0  0  0  0  0  0  0  0  0
    0.7500   -3.8971    0.0000 C   0  0  0  0  0  0  0  0  0  0  0  0
    1.5000   -5.1962    0.0000 N   0  0  0  0  0  0  0  0  0  0  0  0
    0.7500   -6.4952    0.0000 C   0  0  0  0  0  0  0  0  0  0  0  0
   -0.7500   -6.4952    0.0000 N   0  0  0  0  0  0  0  0  0  0  0  0
   -1.5000   -7.7942    0.0000 C   0  0  0  0  0  0  0  0  0  0  0  0
   -0.7500   -9.0933    0.0000 C   0  0  0  0  0  0  0  0  0  0  0  0
   -1.5000  -10.3923    0.0000 Cl  0  0  0  0  0  0  0  0  0  0  0  0
    0.7500   -9.0933    0.0000 C   0  0  0  0  0  0  0  0  0  0  0  0
    1.5000  -10.3923    0.0000 N   0  0  0  0  0  0  0  0  0  0  0  0
    3.0000  -10.3923    0.0000 C   0  0  0  0  0  0  0  0  0  0  0  0
    3.7500   -9.0933    0.0000 C   0  0  0  0  0  0  0  0  0  0  0  0
    5.2500   -9.0933    0.0000 C   0  0  0  0  0  0  0  0  0  0  0  0
    6.0000  -10.3923    0.0000 C   0  0  0  0  0  0  0  0  0  0  0  0
    5.2500  -11.6913    0.0000 C   0  0  0  0  0  0  0  0  0  0  0  0
    3.7500  -11.6913    0.0000 C   0  0  0  0  0  0  0  0  0  0  0  0
    3.0000  -12.9904    0.0000 S   0  0  0  0  0  0  0  0  0  0  0  0
    1.7010  -12.2404    0.0000 O   0  0  0  0  0  0  0  0  0  0  0  0
    4.2990  -13.7404    0.0000 O   0  0  0  0  0  0  0  0  0  0  0  0
    2.2500  -14.2894    0.0000 C   0  0  0  0  0  0  0  0  0  0  0  0
    3.0000  -15.5885    0.0000 C   0  0  0  0  0  0  0  0  0  0  0  0
    0.7500  -14.2894    0.0000 C   0  0  0  0  0  0  0  0  0  0  0  0
    1.5000   -7.7942    0.0000 N   0  0  0  0  0  0  0  0  0  0  0  0
    1.5000    0.0000    0.0000 C   0  0  0  0  0  0  0  0  0  0  0  0
    0.7500    1.2990    0.0000 C   0  0  0  0  0  0  0  0  0  0  0  0
   -0.7500    1.2990    0.0000 N   0  0  0  0  0  0  0  0  0  0  0  0
   -1.5000    2.5981    0.0000 C   0  0  0  0  0  0  0  0  0  0  0  0
   -3.0000    2.5981    0.0000 O   0  0  0  0  0  0  0  0  0  0  0  0
   -0.7500    3.8971    0.0000 C   0  0  0  0  0  0  0  0  0  0  0  0
   -1.5000    5.1962    0.0000 O   0  0  0  0  0  0  0  0  0  0  0  0
   -1.5000    0.0000    0.0000 C   0  0  0  0  0  0  0  0  0  0  0  0
  1  2  1  0
  2  3  1  0
  3  4  2  0
  4  5  1  0
  5  6  2  0
  6  7  1  0
  7  8  2  0
  8  9  1  0
  9 10  1  0
 10 11  2  0
 11 12  1  0
 12 13  2  0
 13 14  1  0
 13 15  1  0
 15 16  1  0
 16 17  1  0
 17 18  2  0
 18 19  1  0
 19 20  2  0
 20 21  1  0
 21 22  2  0
 22 23  1  0
 23 24  2  0
 23 25  2  0
 23 26  1  0
 26 27  1  0
 26 28  1  0
 15 29  2  0
  6 30  1  0
 30 31  1  0
 31 32  1  0
 32 33  1  0
 33 34  2  0
 33 35  1  0
 35 36  1  0
 32 37  1  0
  8  3  1  0
 29 10  1  0
 37  5  1  0
 22 17  1  0
M  END
>  <Compound_ID>  (308) 
CHEMBL4757036

>  <Molecule Name>  (308) 
nan

>  <Molecular Weight>  (308) 
546.05

>  <AlogP>  (308) 
3.68

>  <Smiles>  (308) 
COc1cc2c(cc1Nc1ncc(Cl)c(Nc3ccccc3S(=O)(=O)C(C)C)n1)CCN(C(=O)CO)C2

>  <Standard Type>  (308) 
IC50

>  <Standard Relation>  (308) 
'='

>  <Standard Units>  (308) 
nM

>  <Standard Value>  (308) 
10.0

>  <Assay ChEMBL ID>  (308) 
CHEMBL4716189

>  <Assay Description>  (308) 
Inhibition of crizotinib-resistant ALK L1196M mutant (unknown origin) using peptide substrate incubated for 30 mins in presence of ATP by fluorescence assay

>  <BAO Format ID>  (308) 
BAO_0000357

>  <BAO Label>  (308) 
single protein format

>  <Assay Organism>  (308) 
Homo sapiens

>  <Target ChEMBL ID>  (308) 
CHEMBL4247

>  <Target Name>  (308) 
ALK tyrosine kinase receptor

>  <Target Organism>  (308) 
Homo sapiens

>  <Target Type>  (308) 
SINGLE PROTEIN

>  <Document ChEMBL ID>  (308) 
CHEMBL4715694

>  <Source Description>  (308) 
Scientific Literature

>  <Document Journal>  (308) 
Bioorg Med Chem

>  <Document Year>  (308) 
2016.0

>  <Active>  (308) 
1.0

>  <bits>  (308) 
<rdkit.DataStructs.cDataStructs.ExplicitBitVect object at 0x000002422F188350>

>  <Group>  (308) 
G2

$$$$

     RDKit          2D

 44 48  0  0  0  0  0  0  0  0999 V2000
    3.7500   -1.2990    0.0000 C   0  0  0  0  0  0  0  0  0  0  0  0
    3.0000    0.0000    0.0000 O   0  0  0  0  0  0  0  0  0  0  0  0
    1.5000    0.0000    0.0000 C   0  0  0  0  0  0  0  0  0  0  0  0
    0.7500   -1.2990    0.0000 C   0  0  0  0  0  0  0  0  0  0  0  0
   -0.7500   -1.2990    0.0000 C   0  0  0  0  0  0  0  0  0  0  0  0
   -1.5000   -2.5981    0.0000 N   0  0  0  0  0  0  0  0  0  0  0  0
   -3.0000   -2.5981    0.0000 C   0  0  0  0  0  0  0  0  0  0  0  0
   -3.7500   -3.8971    0.0000 C   0  0  0  0  0  0  0  0  0  0  0  0
   -3.0000   -5.1962    0.0000 N   0  0  0  0  0  0  0  0  0  0  0  0
   -3.7500   -6.4952    0.0000 C   0  0  0  0  0  0  0  0  0  0  0  0
   -5.2500   -6.4952    0.0000 C   0  0  0  0  0  0  0  0  0  0  0  0
   -3.0000   -7.7942    0.0000 O   0  0  0  0  0  0  0  0  0  0  0  0
   -1.5000   -5.1962    0.0000 C   0  0  0  0  0  0  0  0  0  0  0  0
   -0.7500   -3.8971    0.0000 C   0  0  0  0  0  0  0  0  0  0  0  0
   -1.5000    0.0000    0.0000 C   0  0  0  0  0  0  0  0  0  0  0  0
   -0.7500    1.2990    0.0000 C   0  0  0  0  0  0  0  0  0  0  0  0
    0.7500    1.2990    0.0000 C   0  0  0  0  0  0  0  0  0  0  0  0
    1.5000    2.5981    0.0000 N   0  0  0  0  0  0  0  0  0  0  0  0
    3.0000    2.5981    0.0000 C   0  0  0  0  0  0  0  0  0  0  0  0
    3.7500    1.2990    0.0000 N   0  0  0  0  0  0  0  0  0  0  0  0
    5.2500    1.2990    0.0000 C   0  0  0  0  0  0  0  0  0  0  0  0
    6.0000    2.5981    0.0000 C   0  0  0  0  0  0  0  0  0  0  0  0
    7.5000    2.5981    0.0000 Cl  0  0  0  0  0  0  0  0  0  0  0  0
    5.2500    3.8971    0.0000 C   0  0  0  0  0  0  0  0  0  0  0  0
    6.0000    5.1962    0.0000 N   0  0  0  0  0  0  0  0  0  0  0  0
    5.2500    6.4952    0.0000 C   0  0  0  0  0  0  0  0  0  0  0  0
    6.0000    7.7942    0.0000 C   0  0  0  0  0  0  0  0  0  0  0  0
    5.2500    9.0933    0.0000 C   0  0  0  0  0  0  0  0  0  0  0  0
    3.7500    9.0933    0.0000 C   0  0  0  0  0  0  0  0  0  0  0  0
    3.0000   10.3923    0.0000 N   0  0  0  0  0  0  0  0  0  0  0  0
    3.7500   11.6913    0.0000 C   0  0  0  0  0  0  0  0  0  0  0  0
    3.0000   12.9904    0.0000 C   0  0  0  0  0  0  0  0  0  0  0  0
    1.5000   12.9904    0.0000 N   0  0  0  0  0  0  0  0  0  0  0  0
    0.7500   14.2894    0.0000 S   0  0  0  0  0  0  0  0  0  0  0  0
    0.0000   15.5885    0.0000 N   0  0  0  0  0  0  0  0  0  0  0  0
   -0.5490   13.5394    0.0000 O   0  0  0  0  0  0  0  0  0  0  0  0
    2.0490   15.0394    0.0000 O   0  0  0  0  0  0  0  0  0  0  0  0
    0.7500   11.6913    0.0000 C   0  0  0  0  0  0  0  0  0  0  0  0
    1.5000   10.3923    0.0000 C   0  0  0  0  0  0  0  0  0  0  0  0
    3.0000    7.7942    0.0000 C   0  0  0  0  0  0  0  0  0  0  0  0
    3.7500    6.4952    0.0000 C   0  0  0  0  0  0  0  0  0  0  0  0
    3.0000    5.1962    0.0000 O   0  0  0  0  0  0  0  0  0  0  0  0
    1.5000    5.1962    0.0000 C   0  0  0  0  0  0  0  0  0  0  0  0
    3.7500    3.8971    0.0000 N   0  0  0  0  0  0  0  0  0  0  0  0
  1  2  1  0
  2  3  1  0
  3  4  2  0
  4  5  1  0
  5  6  1  0
  6  7  1  0
  7  8  1  0
  8  9  1  0
  9 10  1  0
 10 11  1  0
 10 12  2  0
  9 13  1  0
 13 14  1  0
  5 15  2  0
 15 16  1  0
 16 17  2  0
 17 18  1  0
 18 19  1  0
 19 20  2  0
 20 21  1  0
 21 22  2  0
 22 23  1  0
 22 24  1  0
 24 25  1  0
 25 26  1  0
 26 27  2  0
 27 28  1  0
 28 29  2  0
 29 30  1  0
 30 31  1  0
 31 32  1  0
 32 33  1  0
 33 34  1  0
 34 35  1  0
 34 36  2  0
 34 37  2  0
 33 38  1  0
 38 39  1  0
 29 40  1  0
 40 41  2  0
 41 42  1  0
 42 43  1  0
 24 44  2  0
 17  3  1  0
 44 19  1  0
 14  6  1  0
 41 26  1  0
 39 30  1  0
M  END
>  <Compound_ID>  (309) 
CHEMBL3927081

>  <Molecule Name>  (309) 
nan

>  <Molecular Weight>  (309) 
646.17

>  <AlogP>  (309) 
2.63

>  <Smiles>  (309) 
COc1cc(N2CCN(C(C)=O)CC2)ccc1Nc1ncc(Cl)c(Nc2ccc(N3CCN(S(N)(=O)=O)CC3)cc2OC)n1

>  <Standard Type>  (309) 
IC50

>  <Standard Relation>  (309) 
'='

>  <Standard Units>  (309) 
nM

>  <Standard Value>  (309) 
12.0

>  <Assay ChEMBL ID>  (309) 
CHEMBL3887132

>  <Assay Description>  (309) 
Homogeneous Time-resolved fluorescence (HTRF) Assay: In order to measure the inhibitory activity against ALK, a Grainer 96-well round type bottom plate was added with the compounds (2 μl) prepared in Examples 1 to 89, and mixed with ALK enzyme (1 ul) and a peptide substrate (2 μl) with biotin attached thereto for 15 minutes and cultured thereafter. Here, ATP solution (5 μl) was added thereto and kinase reaction was performed at room temperature for 30 minutes. XL 665 (5 μl), to which Streptavidin dissolved in ethylenediaminetetraacetic acid solution was attached, anti-phosphotyrosine antibody (5 μl), to which europium (Eu3+) was attached, were added to a reaction solution to stop the reaction, cultured for 1 hour, and analyzed using Homogeneous Time-resolved fluorescence (HTRF, Cisbio). The result was read by a Wallac Envision 2103 device at the wavelength range of 615/665 nm.

>  <BAO Format ID>  (309) 
BAO_0000357

>  <BAO Label>  (309) 
single protein format

>  <Assay Organism>  (309) 
Homo sapiens

>  <Target ChEMBL ID>  (309) 
CHEMBL4247

>  <Target Name>  (309) 
ALK tyrosine kinase receptor

>  <Target Organism>  (309) 
Homo sapiens

>  <Target Type>  (309) 
SINGLE PROTEIN

>  <Document ChEMBL ID>  (309) 
CHEMBL3886178

>  <Source Description>  (309) 
BindingDB Database

>  <Document Journal>  (309) 
nan

>  <Document Year>  (309) 
2015.0

>  <Active>  (309) 
1.0

>  <bits>  (309) 
<rdkit.DataStructs.cDataStructs.ExplicitBitVect object at 0x000002422F189A80>

>  <Group>  (309) 
G2

$$$$

     RDKit          2D

 30 33  0  0  0  0  0  0  0  0999 V2000
    2.6491   -3.5623    0.0000 C   0  0  0  0  0  0  0  0  0  0  0  0
    1.5000   -2.5981    0.0000 C   0  0  0  0  0  0  0  0  0  0  0  0
    2.6491   -1.6339    0.0000 C   0  0  0  0  0  0  0  0  0  0  0  0
    0.7500   -1.2990    0.0000 C   0  0  0  0  0  0  0  0  0  0  0  0
    1.5000    0.0000    0.0000 C   0  0  0  0  0  0  0  0  0  0  0  0
    0.7500    1.2990    0.0000 C   0  0  0  0  0  0  0  0  0  0  0  0
    1.5000    2.5981    0.0000 O   0  0  0  0  0  0  0  0  0  0  0  0
    3.0000    2.5981    0.0000 C   0  0  0  0  0  0  0  0  0  0  0  0
    3.7500    3.8971    0.0000 C   0  0  0  0  0  0  0  0  0  0  0  0
    5.2500    3.8971    0.0000 N   0  0  0  0  0  0  0  0  0  0  0  0
    6.0000    5.1962    0.0000 S   0  0  0  0  0  0  0  0  0  0  0  0
    6.7500    6.4952    0.0000 N   0  0  0  0  0  0  0  0  0  0  0  0
    4.7010    5.9462    0.0000 O   0  0  0  0  0  0  0  0  0  0  0  0
    7.2990    4.4462    0.0000 O   0  0  0  0  0  0  0  0  0  0  0  0
   -0.7500    1.2990    0.0000 C   0  0  0  0  0  0  0  0  0  0  0  0
   -1.5000    0.0000    0.0000 C   0  0  0  0  0  0  0  0  0  0  0  0
   -0.7500   -1.2990    0.0000 C   0  0  0  0  0  0  0  0  0  0  0  0
   -1.5000   -2.5981    0.0000 C   0  0  0  0  0  0  0  0  0  0  0  0
   -3.0000   -2.5981    0.0000 O   0  0  0  0  0  0  0  0  0  0  0  0
   -0.7500   -3.8971    0.0000 C   0  0  0  0  0  0  0  0  0  0  0  0
    0.7500   -3.8971    0.0000 C   0  0  0  0  0  0  0  0  0  0  0  0
    1.2135   -5.3237    0.0000 N   0  0  0  0  0  0  0  0  0  0  0  0
    0.0000   -6.2054    0.0000 C   0  0  0  0  0  0  0  0  0  0  0  0
   -0.1568   -7.6972    0.0000 C   0  0  0  0  0  0  0  0  0  0  0  0
   -1.5271   -8.3073    0.0000 C   0  0  0  0  0  0  0  0  0  0  0  0
   -1.6839   -9.7990    0.0000 C   0  0  0  0  0  0  0  0  0  0  0  0
   -1.8407  -11.2908    0.0000 N   0  0  0  0  0  0  0  0  0  0  0  0
   -2.7406   -7.4256    0.0000 C   0  0  0  0  0  0  0  0  0  0  0  0
   -2.5838   -5.9338    0.0000 C   0  0  0  0  0  0  0  0  0  0  0  0
   -1.2135   -5.3237    0.0000 C   0  0  0  0  0  0  0  0  0  0  0  0
  1  2  1  0
  2  3  1  0
  2  4  1  0
  4  5  2  0
  5  6  1  0
  6  7  1  0
  7  8  1  0
  8  9  1  0
  9 10  1  0
 10 11  1  0
 11 12  1  0
 11 13  2  0
 11 14  2  0
  6 15  2  0
 15 16  1  0
 16 17  2  0
 17 18  1  0
 18 19  2  0
 18 20  1  0
 20 21  2  0
 21 22  1  0
 22 23  1  0
 23 24  2  0
 24 25  1  0
 25 26  1  0
 26 27  3  0
 25 28  2  0
 28 29  1  0
 29 30  2  0
 21  2  1  0
 30 23  1  0
 17  4  1  0
 30 20  1  0
M  END
>  <Compound_ID>  (310) 
CHEMBL3902372

>  <Molecule Name>  (310) 
nan

>  <Molecular Weight>  (310) 
424.48

>  <AlogP>  (310) 
2.08

>  <Smiles>  (310) 
CC1(C)c2cc(OCCNS(N)(=O)=O)ccc2C(=O)c2c1[nH]c1cc(C#N)ccc21

>  <Standard Type>  (310) 
IC50

>  <Standard Relation>  (310) 
'='

>  <Standard Units>  (310) 
nM

>  <Standard Value>  (310) 
7.65

>  <Assay ChEMBL ID>  (310) 
CHEMBL3887074

>  <Assay Description>  (310) 
Inhibition Assay: ALK-inhibiting activity was measured by following an activity of inhibiting phosphorylation by biotinylated peptide (EGPWLEEEEEAYGWMDF). For the detection of phosphorylation of the biotinylated peptide, time-resolved fluorescence measurement was performed using an anti-phosphorylated tyrosine antibody labeled with europium cryptate and streptavidin conjugated to XL665, i.e., an allophycocyanin derivative.

>  <BAO Format ID>  (310) 
BAO_0000357

>  <BAO Label>  (310) 
single protein format

>  <Assay Organism>  (310) 
Homo sapiens

>  <Target ChEMBL ID>  (310) 
CHEMBL4247

>  <Target Name>  (310) 
ALK tyrosine kinase receptor

>  <Target Organism>  (310) 
Homo sapiens

>  <Target Type>  (310) 
SINGLE PROTEIN

>  <Document ChEMBL ID>  (310) 
CHEMBL3886150

>  <Source Description>  (310) 
BindingDB Database

>  <Document Journal>  (310) 
nan

>  <Document Year>  (310) 
2015.0

>  <Active>  (310) 
1.0

>  <bits>  (310) 
<rdkit.DataStructs.cDataStructs.ExplicitBitVect object at 0x000002422F188740>

>  <Group>  (310) 
G2

$$$$

     RDKit          2D

 29 32  0  0  0  0  0  0  0  0999 V2000
    2.6491   -3.5623    0.0000 C   0  0  0  0  0  0  0  0  0  0  0  0
    1.5000   -2.5981    0.0000 C   0  0  0  0  0  0  0  0  0  0  0  0
    2.6491   -1.6339    0.0000 C   0  0  0  0  0  0  0  0  0  0  0  0
    0.7500   -1.2990    0.0000 C   0  0  0  0  0  0  0  0  0  0  0  0
    1.5000    0.0000    0.0000 C   0  0  0  0  0  0  0  0  0  0  0  0
    0.7500    1.2990    0.0000 C   0  0  0  0  0  0  0  0  0  0  0  0
   -0.7500    1.2990    0.0000 C   0  0  0  0  0  0  0  0  0  0  0  0
   -1.5000    2.5981    0.0000 O   0  0  0  0  0  0  0  0  0  0  0  0
   -0.7500    3.8971    0.0000 C   0  0  0  0  0  0  0  0  0  0  0  0
   -1.5000    5.1962    0.0000 C   0  0  0  0  0  0  0  0  0  0  0  0
   -3.0000    5.1962    0.0000 O   0  0  0  0  0  0  0  0  0  0  0  0
   -0.7500    6.4952    0.0000 C   0  0  0  0  0  0  0  0  0  0  0  0
    0.7500    6.4952    0.0000 O   0  0  0  0  0  0  0  0  0  0  0  0
   -1.5000    7.7942    0.0000 C   0  0  0  0  0  0  0  0  0  0  0  0
   -0.7500    9.0933    0.0000 O   0  0  0  0  0  0  0  0  0  0  0  0
   -1.5000    0.0000    0.0000 C   0  0  0  0  0  0  0  0  0  0  0  0
   -0.7500   -1.2990    0.0000 C   0  0  0  0  0  0  0  0  0  0  0  0
   -1.5000   -2.5981    0.0000 C   0  0  0  0  0  0  0  0  0  0  0  0
   -3.0000   -2.5981    0.0000 O   0  0  0  0  0  0  0  0  0  0  0  0
   -0.7500   -3.8971    0.0000 C   0  0  0  0  0  0  0  0  0  0  0  0
    0.7500   -3.8971    0.0000 C   0  0  0  0  0  0  0  0  0  0  0  0
    1.2135   -5.3237    0.0000 N   0  0  0  0  0  0  0  0  0  0  0  0
    0.0000   -6.2054    0.0000 C   0  0  0  0  0  0  0  0  0  0  0  0
   -0.1568   -7.6972    0.0000 C   0  0  0  0  0  0  0  0  0  0  0  0
   -1.5271   -8.3073    0.0000 C   0  0  0  0  0  0  0  0  0  0  0  0
   -1.6839   -9.7990    0.0000 Br  0  0  0  0  0  0  0  0  0  0  0  0
   -2.7406   -7.4256    0.0000 C   0  0  0  0  0  0  0  0  0  0  0  0
   -2.5838   -5.9338    0.0000 C   0  0  0  0  0  0  0  0  0  0  0  0
   -1.2135   -5.3237    0.0000 C   0  0  0  0  0  0  0  0  0  0  0  0
  1  2  1  0
  2  3  1  0
  2  4  1  0
  4  5  2  0
  5  6  1  0
  6  7  2  0
  7  8  1  0
  8  9  1  0
  9 10  1  0
 10 11  1  1
 10 12  1  0
 12 13  1  1
 12 14  1  0
 14 15  1  0
  7 16  1  0
 16 17  2  0
 17 18  1  0
 18 19  2  0
 18 20  1  0
 20 21  2  0
 21 22  1  0
 22 23  1  0
 23 24  2  0
 24 25  1  0
 25 26  1  0
 25 27  2  0
 27 28  1  0
 28 29  2  0
 21  2  1  0
 29 23  1  0
 17  4  1  0
 29 20  1  0
M  END
>  <Compound_ID>  (311) 
CHEMBL4106475

>  <Molecule Name>  (311) 
nan

>  <Molecular Weight>  (311) 
460.32

>  <AlogP>  (311) 
2.89

>  <Smiles>  (311) 
CC1(C)c2ccc(OC[C@@H](O)[C@H](O)CO)cc2C(=O)c2c1[nH]c1cc(Br)ccc21

>  <Standard Type>  (311) 
IC50

>  <Standard Relation>  (311) 
'='

>  <Standard Units>  (311) 
nM

>  <Standard Value>  (311) 
28.99

>  <Assay ChEMBL ID>  (311) 
CHEMBL3887074

>  <Assay Description>  (311) 
Inhibition Assay: ALK-inhibiting activity was measured by following an activity of inhibiting phosphorylation by biotinylated peptide (EGPWLEEEEEAYGWMDF). For the detection of phosphorylation of the biotinylated peptide, time-resolved fluorescence measurement was performed using an anti-phosphorylated tyrosine antibody labeled with europium cryptate and streptavidin conjugated to XL665, i.e., an allophycocyanin derivative.

>  <BAO Format ID>  (311) 
BAO_0000357

>  <BAO Label>  (311) 
single protein format

>  <Assay Organism>  (311) 
Homo sapiens

>  <Target ChEMBL ID>  (311) 
CHEMBL4247

>  <Target Name>  (311) 
ALK tyrosine kinase receptor

>  <Target Organism>  (311) 
Homo sapiens

>  <Target Type>  (311) 
SINGLE PROTEIN

>  <Document ChEMBL ID>  (311) 
CHEMBL3886150

>  <Source Description>  (311) 
BindingDB Database

>  <Document Journal>  (311) 
nan

>  <Document Year>  (311) 
2015.0

>  <Active>  (311) 
1.0

>  <bits>  (311) 
<rdkit.DataStructs.cDataStructs.ExplicitBitVect object at 0x000002422F189230>

>  <Group>  (311) 
G2

$$$$

     RDKit          2D

 30 33  0  0  0  0  0  0  0  0999 V2000
    2.6491   -3.5623    0.0000 C   0  0  0  0  0  0  0  0  0  0  0  0
    1.5000   -2.5981    0.0000 C   0  0  0  0  0  0  0  0  0  0  0  0
    2.6491   -1.6339    0.0000 C   0  0  0  0  0  0  0  0  0  0  0  0
    0.7500   -1.2990    0.0000 C   0  0  0  0  0  0  0  0  0  0  0  0
    1.5000    0.0000    0.0000 C   0  0  0  0  0  0  0  0  0  0  0  0
    0.7500    1.2990    0.0000 C   0  0  0  0  0  0  0  0  0  0  0  0
    1.5000    2.5981    0.0000 O   0  0  0  0  0  0  0  0  0  0  0  0
    3.0000    2.5981    0.0000 C   0  0  0  0  0  0  0  0  0  0  0  0
    3.7500    3.8971    0.0000 C   0  0  0  0  0  0  0  0  0  0  0  0
    5.2500    3.8971    0.0000 N   0  0  0  0  0  0  0  0  0  0  0  0
    6.0000    5.1962    0.0000 S   0  0  0  0  0  0  0  0  0  0  0  0
    6.7500    6.4952    0.0000 C   0  0  0  0  0  0  0  0  0  0  0  0
    4.7010    5.9462    0.0000 O   0  0  0  0  0  0  0  0  0  0  0  0
    7.2990    4.4462    0.0000 O   0  0  0  0  0  0  0  0  0  0  0  0
   -0.7500    1.2990    0.0000 C   0  0  0  0  0  0  0  0  0  0  0  0
   -1.5000    0.0000    0.0000 C   0  0  0  0  0  0  0  0  0  0  0  0
   -0.7500   -1.2990    0.0000 C   0  0  0  0  0  0  0  0  0  0  0  0
   -1.5000   -2.5981    0.0000 C   0  0  0  0  0  0  0  0  0  0  0  0
   -3.0000   -2.5981    0.0000 O   0  0  0  0  0  0  0  0  0  0  0  0
   -0.7500   -3.8971    0.0000 C   0  0  0  0  0  0  0  0  0  0  0  0
    0.7500   -3.8971    0.0000 C   0  0  0  0  0  0  0  0  0  0  0  0
    1.2135   -5.3237    0.0000 N   0  0  0  0  0  0  0  0  0  0  0  0
    0.0000   -6.2054    0.0000 C   0  0  0  0  0  0  0  0  0  0  0  0
   -0.1568   -7.6972    0.0000 C   0  0  0  0  0  0  0  0  0  0  0  0
   -1.5271   -8.3073    0.0000 C   0  0  0  0  0  0  0  0  0  0  0  0
   -1.6839   -9.7990    0.0000 C   0  0  0  0  0  0  0  0  0  0  0  0
   -1.8407  -11.2908    0.0000 N   0  0  0  0  0  0  0  0  0  0  0  0
   -2.7406   -7.4256    0.0000 C   0  0  0  0  0  0  0  0  0  0  0  0
   -2.5838   -5.9338    0.0000 C   0  0  0  0  0  0  0  0  0  0  0  0
   -1.2135   -5.3237    0.0000 C   0  0  0  0  0  0  0  0  0  0  0  0
  1  2  1  0
  2  3  1  0
  2  4  1  0
  4  5  2  0
  5  6  1  0
  6  7  1  0
  7  8  1  0
  8  9  1  0
  9 10  1  0
 10 11  1  0
 11 12  1  0
 11 13  2  0
 11 14  2  0
  6 15  2  0
 15 16  1  0
 16 17  2  0
 17 18  1  0
 18 19  2  0
 18 20  1  0
 20 21  2  0
 21 22  1  0
 22 23  1  0
 23 24  2  0
 24 25  1  0
 25 26  1  0
 26 27  3  0
 25 28  2  0
 28 29  1  0
 29 30  2  0
 21  2  1  0
 30 23  1  0
 17  4  1  0
 30 20  1  0
M  END
>  <Compound_ID>  (312) 
CHEMBL3893584

>  <Molecule Name>  (312) 
nan

>  <Molecular Weight>  (312) 
423.49

>  <AlogP>  (312) 
2.84

>  <Smiles>  (312) 
CC1(C)c2cc(OCCNS(C)(=O)=O)ccc2C(=O)c2c1[nH]c1cc(C#N)ccc21

>  <Standard Type>  (312) 
IC50

>  <Standard Relation>  (312) 
'='

>  <Standard Units>  (312) 
nM

>  <Standard Value>  (312) 
4.943

>  <Assay ChEMBL ID>  (312) 
CHEMBL3887074

>  <Assay Description>  (312) 
Inhibition Assay: ALK-inhibiting activity was measured by following an activity of inhibiting phosphorylation by biotinylated peptide (EGPWLEEEEEAYGWMDF). For the detection of phosphorylation of the biotinylated peptide, time-resolved fluorescence measurement was performed using an anti-phosphorylated tyrosine antibody labeled with europium cryptate and streptavidin conjugated to XL665, i.e., an allophycocyanin derivative.

>  <BAO Format ID>  (312) 
BAO_0000357

>  <BAO Label>  (312) 
single protein format

>  <Assay Organism>  (312) 
Homo sapiens

>  <Target ChEMBL ID>  (312) 
CHEMBL4247

>  <Target Name>  (312) 
ALK tyrosine kinase receptor

>  <Target Organism>  (312) 
Homo sapiens

>  <Target Type>  (312) 
SINGLE PROTEIN

>  <Document ChEMBL ID>  (312) 
CHEMBL3886150

>  <Source Description>  (312) 
BindingDB Database

>  <Document Journal>  (312) 
nan

>  <Document Year>  (312) 
2015.0

>  <Active>  (312) 
1.0

>  <bits>  (312) 
<rdkit.DataStructs.cDataStructs.ExplicitBitVect object at 0x000002422F18AE30>

>  <Group>  (312) 
G2

$$$$

     RDKit          2D

 33 38  0  0  0  0  0  0  0  0999 V2000
    2.6491   -3.5623    0.0000 C   0  0  0  0  0  0  0  0  0  0  0  0
    1.5000   -2.5981    0.0000 C   0  0  0  0  0  0  0  0  0  0  0  0
    2.6491   -1.6339    0.0000 C   0  0  0  0  0  0  0  0  0  0  0  0
    0.7500   -1.2990    0.0000 C   0  0  0  0  0  0  0  0  0  0  0  0
    1.5000    0.0000    0.0000 C   0  0  0  0  0  0  0  0  0  0  0  0
    0.7500    1.2990    0.0000 C   0  0  0  0  0  0  0  0  0  0  0  0
   -0.7500    1.2990    0.0000 C   0  0  0  0  0  0  0  0  0  0  0  0
   -1.5000    2.5981    0.0000 N   0  0  0  0  0  0  0  0  0  0  0  0
   -2.9918    2.7549    0.0000 C   0  0  0  0  0  0  0  0  0  0  0  0
   -3.3037    4.2221    0.0000 C   0  0  0  0  0  0  0  0  0  0  0  0
   -2.0046    4.9721    0.0000 C   0  0  0  0  0  0  0  0  0  0  0  0
   -0.8899    3.9684    0.0000 C   0  0  0  0  0  0  0  0  0  0  0  0
    0.5773    4.2803    0.0000 C   0  0  0  0  0  0  0  0  0  0  0  0
    1.0409    5.7068    0.0000 N   0  0  0  0  0  0  0  0  0  0  0  0
    0.1592    6.9204    0.0000 C   0  0  0  0  0  0  0  0  0  0  0  0
    1.0409    8.1339    0.0000 C   0  0  0  0  0  0  0  0  0  0  0  0
    2.4674    7.6704    0.0000 C   0  0  0  0  0  0  0  0  0  0  0  0
    2.4674    6.1704    0.0000 C   0  0  0  0  0  0  0  0  0  0  0  0
   -1.5000    0.0000    0.0000 C   0  0  0  0  0  0  0  0  0  0  0  0
   -0.7500   -1.2990    0.0000 C   0  0  0  0  0  0  0  0  0  0  0  0
   -1.5000   -2.5981    0.0000 C   0  0  0  0  0  0  0  0  0  0  0  0
   -3.0000   -2.5981    0.0000 O   0  0  0  0  0  0  0  0  0  0  0  0
   -0.7500   -3.8971    0.0000 C   0  0  0  0  0  0  0  0  0  0  0  0
    0.7500   -3.8971    0.0000 C   0  0  0  0  0  0  0  0  0  0  0  0
    1.2135   -5.3237    0.0000 N   0  0  0  0  0  0  0  0  0  0  0  0
    0.0000   -6.2054    0.0000 C   0  0  0  0  0  0  0  0  0  0  0  0
   -0.1568   -7.6972    0.0000 C   0  0  0  0  0  0  0  0  0  0  0  0
   -1.5271   -8.3073    0.0000 C   0  0  0  0  0  0  0  0  0  0  0  0
   -1.6839   -9.7990    0.0000 C   0  0  0  0  0  0  0  0  0  0  0  0
   -1.8407  -11.2908    0.0000 N   0  0  0  0  0  0  0  0  0  0  0  0
   -2.7406   -7.4256    0.0000 C   0  0  0  0  0  0  0  0  0  0  0  0
   -2.5838   -5.9338    0.0000 C   0  0  0  0  0  0  0  0  0  0  0  0
   -1.2135   -5.3237    0.0000 C   0  0  0  0  0  0  0  0  0  0  0  0
  1  2  1  0
  2  3  1  0
  2  4  1  0
  4  5  2  0
  5  6  1  0
  6  7  2  0
  7  8  1  0
  8  9  1  0
  9 10  1  0
 10 11  1  0
 11 12  1  0
 12 13  1  1
 13 14  1  0
 14 15  1  0
 15 16  1  0
 16 17  1  0
 17 18  1  0
  7 19  1  0
 19 20  2  0
 20 21  1  0
 21 22  2  0
 21 23  1  0
 23 24  2  0
 24 25  1  0
 25 26  1  0
 26 27  2  0
 27 28  1  0
 28 29  1  0
 29 30  3  0
 28 31  2  0
 31 32  1  0
 32 33  2  0
 24  2  1  0
 33 26  1  0
 20  4  1  0
 33 23  1  0
 12  8  1  0
 18 14  1  0
M  END
>  <Compound_ID>  (313) 
CHEMBL3891393

>  <Molecule Name>  (313) 
nan

>  <Molecular Weight>  (313) 
438.58

>  <AlogP>  (313) 
4.97

>  <Smiles>  (313) 
CC1(C)c2ccc(N3CCC[C@H]3CN3CCCC3)cc2C(=O)c2c1[nH]c1cc(C#N)ccc21

>  <Standard Type>  (313) 
IC50

>  <Standard Relation>  (313) 
'='

>  <Standard Units>  (313) 
nM

>  <Standard Value>  (313) 
1.57

>  <Assay ChEMBL ID>  (313) 
CHEMBL3887074

>  <Assay Description>  (313) 
Inhibition Assay: ALK-inhibiting activity was measured by following an activity of inhibiting phosphorylation by biotinylated peptide (EGPWLEEEEEAYGWMDF). For the detection of phosphorylation of the biotinylated peptide, time-resolved fluorescence measurement was performed using an anti-phosphorylated tyrosine antibody labeled with europium cryptate and streptavidin conjugated to XL665, i.e., an allophycocyanin derivative.

>  <BAO Format ID>  (313) 
BAO_0000357

>  <BAO Label>  (313) 
single protein format

>  <Assay Organism>  (313) 
Homo sapiens

>  <Target ChEMBL ID>  (313) 
CHEMBL4247

>  <Target Name>  (313) 
ALK tyrosine kinase receptor

>  <Target Organism>  (313) 
Homo sapiens

>  <Target Type>  (313) 
SINGLE PROTEIN

>  <Document ChEMBL ID>  (313) 
CHEMBL3886150

>  <Source Description>  (313) 
BindingDB Database

>  <Document Journal>  (313) 
nan

>  <Document Year>  (313) 
2015.0

>  <Active>  (313) 
1.0

>  <bits>  (313) 
<rdkit.DataStructs.cDataStructs.ExplicitBitVect object at 0x000002422F189F50>

>  <Group>  (313) 
G2

$$$$

     RDKit          2D

 35 38  0  0  0  0  0  0  0  0999 V2000
   -1.7110    5.9853    0.0000 C   0  0  0  0  0  0  0  0  0  0  0  0
   -0.2487    5.6515    0.0000 O   0  0  0  0  0  0  0  0  0  0  0  0
    0.1935    4.2182    0.0000 C   0  0  0  0  0  0  0  0  0  0  0  0
   -0.8268    3.1186    0.0000 C   0  0  0  0  0  0  0  0  0  0  0  0
   -0.3846    1.6852    0.0000 C   0  0  0  0  0  0  0  0  0  0  0  0
    1.0777    1.3515    0.0000 C   0  0  0  0  0  0  0  0  0  0  0  0
    2.0980    2.4510    0.0000 C   0  0  0  0  0  0  0  0  0  0  0  0
    1.6559    3.8844    0.0000 C   0  0  0  0  0  0  0  0  0  0  0  0
    2.6761    4.9840    0.0000 N   0  0  0  0  0  0  0  0  0  0  0  0
    4.1385    4.6502    0.0000 C   0  0  0  0  0  0  0  0  0  0  0  0
    4.5807    3.2168    0.0000 N   0  0  0  0  0  0  0  0  0  0  0  0
    6.0430    2.8830    0.0000 C   0  0  0  0  0  0  0  0  0  0  0  0
    7.0633    3.9826    0.0000 C   0  0  0  0  0  0  0  0  0  0  0  0
    8.5257    3.6488    0.0000 Cl  0  0  0  0  0  0  0  0  0  0  0  0
    6.6212    5.4160    0.0000 C   0  0  0  0  0  0  0  0  0  0  0  0
    7.6414    6.5156    0.0000 N   0  0  0  0  0  0  0  0  0  0  0  0
    7.1993    7.9489    0.0000 C   0  0  0  0  0  0  0  0  0  0  0  0
    5.7369    8.2827    0.0000 C   0  0  0  0  0  0  0  0  0  0  0  0
    5.2948    9.7161    0.0000 C   0  0  0  0  0  0  0  0  0  0  0  0
    6.3150   10.8156    0.0000 C   0  0  0  0  0  0  0  0  0  0  0  0
    7.7774   10.4819    0.0000 C   0  0  0  0  0  0  0  0  0  0  0  0
    8.2196    9.0485    0.0000 C   0  0  0  0  0  0  0  0  0  0  0  0
    9.6820    8.7147    0.0000 S   0  0  0  0  0  0  0  0  0  0  0  0
    9.3482    7.2523    0.0000 O   0  0  0  0  0  0  0  0  0  0  0  0
   10.0157   10.1771    0.0000 O   0  0  0  0  0  0  0  0  0  0  0  0
   11.1443    8.3809    0.0000 C   0  0  0  0  0  0  0  0  0  0  0  0
   12.1646    9.4805    0.0000 C   0  0  0  0  0  0  0  0  0  0  0  0
   11.5865    6.9476    0.0000 C   0  0  0  0  0  0  0  0  0  0  0  0
    5.1588    5.7498    0.0000 N   0  0  0  0  0  0  0  0  0  0  0  0
    1.7286    0.0000    0.0000 C   0  0  0  0  0  0  0  0  0  0  0  0
    1.0777   -1.3515    0.0000 C   0  0  0  0  0  0  0  0  0  0  0  0
   -0.3846   -1.6852    0.0000 N   0  0  0  0  0  0  0  0  0  0  0  0
   -1.5574   -0.7500    0.0000 C   0  0  0  0  0  0  0  0  0  0  0  0
   -2.9088   -1.4008    0.0000 O   0  0  0  0  0  0  0  0  0  0  0  0
   -1.5574    0.7500    0.0000 C   0  0  0  0  0  0  0  0  0  0  0  0
  1  2  1  0
  2  3  1  0
  3  4  2  0
  4  5  1  0
  5  6  2  0
  6  7  1  0
  7  8  2  0
  8  9  1  0
  9 10  1  0
 10 11  2  0
 11 12  1  0
 12 13  2  0
 13 14  1  0
 13 15  1  0
 15 16  1  0
 16 17  1  0
 17 18  2  0
 18 19  1  0
 19 20  2  0
 20 21  1  0
 21 22  2  0
 22 23  1  0
 23 24  2  0
 23 25  2  0
 23 26  1  0
 26 27  1  0
 26 28  1  0
 15 29  2  0
  6 30  1  0
 30 31  1  0
 31 32  1  0
 32 33  1  0
 33 34  2  0
 33 35  1  0
  8  3  1  0
 29 10  1  0
 35  5  1  0
 22 17  1  0
M  END
>  <Compound_ID>  (314) 
CHEMBL3608521

>  <Molecule Name>  (314) 
nan

>  <Molecular Weight>  (314) 
516.02

>  <AlogP>  (314) 
4.02

>  <Smiles>  (314) 
COc1cc2c(cc1Nc1ncc(Cl)c(Nc3ccccc3S(=O)(=O)C(C)C)n1)CCNC(=O)C2

>  <Standard Type>  (314) 
IC50

>  <Standard Relation>  (314) 
'='

>  <Standard Units>  (314) 
nM

>  <Standard Value>  (314) 
15.0

>  <Assay ChEMBL ID>  (314) 
CHEMBL3610967

>  <Assay Description>  (314) 
Inhibition of ALK L1196M mutant (unknown origin) by homogeneous time resolved fluorescence assay

>  <BAO Format ID>  (314) 
BAO_0000357

>  <BAO Label>  (314) 
single protein format

>  <Assay Organism>  (314) 
Homo sapiens

>  <Target ChEMBL ID>  (314) 
CHEMBL4247

>  <Target Name>  (314) 
ALK tyrosine kinase receptor

>  <Target Organism>  (314) 
Homo sapiens

>  <Target Type>  (314) 
SINGLE PROTEIN

>  <Document ChEMBL ID>  (314) 
CHEMBL3608257

>  <Source Description>  (314) 
Scientific Literature

>  <Document Journal>  (314) 
Bioorg Med Chem Lett

>  <Document Year>  (314) 
2015.0

>  <Active>  (314) 
1.0

>  <bits>  (314) 
<rdkit.DataStructs.cDataStructs.ExplicitBitVect object at 0x000002422F1887B0>

>  <Group>  (314) 
G2

$$$$

     RDKit          2D

 29 32  0  0  0  0  0  0  0  0999 V2000
    2.6491   -3.5623    0.0000 C   0  0  0  0  0  0  0  0  0  0  0  0
    1.5000   -2.5981    0.0000 C   0  0  0  0  0  0  0  0  0  0  0  0
    2.6491   -1.6339    0.0000 C   0  0  0  0  0  0  0  0  0  0  0  0
    0.7500   -1.2990    0.0000 C   0  0  0  0  0  0  0  0  0  0  0  0
    1.5000    0.0000    0.0000 C   0  0  0  0  0  0  0  0  0  0  0  0
    0.7500    1.2990    0.0000 C   0  0  0  0  0  0  0  0  0  0  0  0
    1.5000    2.5981    0.0000 C   0  0  0  0  0  0  0  0  0  0  0  0
    3.0000    2.5981    0.0000 N   0  0  0  0  0  0  0  0  0  0  0  0
    3.7500    3.8971    0.0000 C   0  0  0  0  0  0  0  0  0  0  0  0
    5.2500    3.8971    0.0000 C   0  0  0  0  0  0  0  0  0  0  0  0
    6.7500    3.8971    0.0000 F   0  0  0  0  0  0  0  0  0  0  0  0
    5.2500    5.3971    0.0000 F   0  0  0  0  0  0  0  0  0  0  0  0
    5.2500    2.3971    0.0000 F   0  0  0  0  0  0  0  0  0  0  0  0
   -0.7500    1.2990    0.0000 C   0  0  0  0  0  0  0  0  0  0  0  0
   -1.5000    0.0000    0.0000 C   0  0  0  0  0  0  0  0  0  0  0  0
   -0.7500   -1.2990    0.0000 C   0  0  0  0  0  0  0  0  0  0  0  0
   -1.5000   -2.5981    0.0000 C   0  0  0  0  0  0  0  0  0  0  0  0
   -3.0000   -2.5981    0.0000 O   0  0  0  0  0  0  0  0  0  0  0  0
   -0.7500   -3.8971    0.0000 C   0  0  0  0  0  0  0  0  0  0  0  0
    0.7500   -3.8971    0.0000 C   0  0  0  0  0  0  0  0  0  0  0  0
    1.2135   -5.3237    0.0000 N   0  0  0  0  0  0  0  0  0  0  0  0
    0.0000   -6.2054    0.0000 C   0  0  0  0  0  0  0  0  0  0  0  0
   -0.1568   -7.6972    0.0000 C   0  0  0  0  0  0  0  0  0  0  0  0
   -1.5271   -8.3073    0.0000 C   0  0  0  0  0  0  0  0  0  0  0  0
   -1.6839   -9.7990    0.0000 C   0  0  0  0  0  0  0  0  0  0  0  0
   -1.8407  -11.2908    0.0000 N   0  0  0  0  0  0  0  0  0  0  0  0
   -2.7406   -7.4256    0.0000 C   0  0  0  0  0  0  0  0  0  0  0  0
   -2.5838   -5.9338    0.0000 C   0  0  0  0  0  0  0  0  0  0  0  0
   -1.2135   -5.3237    0.0000 C   0  0  0  0  0  0  0  0  0  0  0  0
  1  2  1  0
  2  3  1  0
  2  4  1  0
  4  5  2  0
  5  6  1  0
  6  7  1  0
  7  8  1  0
  8  9  1  0
  9 10  1  0
 10 11  1  0
 10 12  1  0
 10 13  1  0
  6 14  2  0
 14 15  1  0
 15 16  2  0
 16 17  1  0
 17 18  2  0
 17 19  1  0
 19 20  2  0
 20 21  1  0
 21 22  1  0
 22 23  2  0
 23 24  1  0
 24 25  1  0
 25 26  3  0
 24 27  2  0
 27 28  1  0
 28 29  2  0
 20  2  1  0
 29 22  1  0
 16  4  1  0
 29 19  1  0
M  END
>  <Compound_ID>  (315) 
CHEMBL3962220

>  <Molecule Name>  (315) 
nan

>  <Molecular Weight>  (315) 
397.4

>  <AlogP>  (315) 
4.56

>  <Smiles>  (315) 
CC1(C)c2cc(CNCC(F)(F)F)ccc2C(=O)c2c1[nH]c1cc(C#N)ccc21

>  <Standard Type>  (315) 
IC50

>  <Standard Relation>  (315) 
'='

>  <Standard Units>  (315) 
nM

>  <Standard Value>  (315) 
11.86

>  <Assay ChEMBL ID>  (315) 
CHEMBL3887074

>  <Assay Description>  (315) 
Inhibition Assay: ALK-inhibiting activity was measured by following an activity of inhibiting phosphorylation by biotinylated peptide (EGPWLEEEEEAYGWMDF). For the detection of phosphorylation of the biotinylated peptide, time-resolved fluorescence measurement was performed using an anti-phosphorylated tyrosine antibody labeled with europium cryptate and streptavidin conjugated to XL665, i.e., an allophycocyanin derivative.

>  <BAO Format ID>  (315) 
BAO_0000357

>  <BAO Label>  (315) 
single protein format

>  <Assay Organism>  (315) 
Homo sapiens

>  <Target ChEMBL ID>  (315) 
CHEMBL4247

>  <Target Name>  (315) 
ALK tyrosine kinase receptor

>  <Target Organism>  (315) 
Homo sapiens

>  <Target Type>  (315) 
SINGLE PROTEIN

>  <Document ChEMBL ID>  (315) 
CHEMBL3886150

>  <Source Description>  (315) 
BindingDB Database

>  <Document Journal>  (315) 
nan

>  <Document Year>  (315) 
2015.0

>  <Active>  (315) 
1.0

>  <bits>  (315) 
<rdkit.DataStructs.cDataStructs.ExplicitBitVect object at 0x000002422F189AF0>

>  <Group>  (315) 
G2

$$$$

     RDKit          2D

 31 34  0  0  0  0  0  0  0  0999 V2000
   10.2601   11.2477    0.0000 C   0  0  0  0  0  0  0  0  0  0  0  0
   10.7022    9.8143    0.0000 N   0  0  0  0  0  0  0  0  0  0  0  0
    9.6820    8.7147    0.0000 C   0  0  0  0  0  0  0  0  0  0  0  0
    8.2196    9.0485    0.0000 O   0  0  0  0  0  0  0  0  0  0  0  0
   10.1241    7.2814    0.0000 C   0  0  0  0  0  0  0  0  0  0  0  0
   11.5865    6.9476    0.0000 C   0  0  0  0  0  0  0  0  0  0  0  0
   12.0286    5.5142    0.0000 C   0  0  0  0  0  0  0  0  0  0  0  0
   11.0084    4.4146    0.0000 C   0  0  0  0  0  0  0  0  0  0  0  0
    9.5460    4.7484    0.0000 C   0  0  0  0  0  0  0  0  0  0  0  0
    9.1038    6.1818    0.0000 C   0  0  0  0  0  0  0  0  0  0  0  0
    7.6414    6.5156    0.0000 N   0  0  0  0  0  0  0  0  0  0  0  0
    6.6212    5.4160    0.0000 C   0  0  0  0  0  0  0  0  0  0  0  0
    5.1588    5.7498    0.0000 N   0  0  0  0  0  0  0  0  0  0  0  0
    4.1385    4.6502    0.0000 C   0  0  0  0  0  0  0  0  0  0  0  0
    2.6761    4.9840    0.0000 N   0  0  0  0  0  0  0  0  0  0  0  0
    1.6559    3.8844    0.0000 C   0  0  0  0  0  0  0  0  0  0  0  0
    0.1935    4.2182    0.0000 C   0  0  0  0  0  0  0  0  0  0  0  0
   -0.8268    3.1186    0.0000 C   0  0  0  0  0  0  0  0  0  0  0  0
   -0.3846    1.6852    0.0000 C   0  0  0  0  0  0  0  0  0  0  0  0
    1.0777    1.3515    0.0000 C   0  0  0  0  0  0  0  0  0  0  0  0
    2.0980    2.4510    0.0000 C   0  0  0  0  0  0  0  0  0  0  0  0
    1.7286    0.0000    0.0000 C   0  0  0  0  0  0  0  0  0  0  0  0
    3.2286   -0.0000    0.0000 C   0  0  0  0  0  0  0  0  0  0  0  0
    1.0777   -1.3515    0.0000 C   0  0  0  0  0  0  0  0  0  0  0  0
   -0.3846   -1.6852    0.0000 N   0  0  0  0  0  0  0  0  0  0  0  0
   -1.5574   -0.7500    0.0000 C   0  0  0  0  0  0  0  0  0  0  0  0
   -1.5574    0.7500    0.0000 C   0  0  0  0  0  0  0  0  0  0  0  0
    4.5807    3.2168    0.0000 N   0  0  0  0  0  0  0  0  0  0  0  0
    6.0430    2.8830    0.0000 C   0  0  0  0  0  0  0  0  0  0  0  0
    7.0633    3.9826    0.0000 C   0  0  0  0  0  0  0  0  0  0  0  0
    8.5257    3.6488    0.0000 Cl  0  0  0  0  0  0  0  0  0  0  0  0
  1  2  1  0
  2  3  1  0
  3  4  2  0
  3  5  1  0
  5  6  2  0
  6  7  1  0
  7  8  2  0
  8  9  1  0
  9 10  2  0
 10 11  1  0
 11 12  1  0
 12 13  2  0
 13 14  1  0
 14 15  1  0
 15 16  1  0
 16 17  2  0
 17 18  1  0
 18 19  2  0
 19 20  1  0
 20 21  2  0
 20 22  1  0
 22 23  1  0
 22 24  1  0
 24 25  1  0
 25 26  1  0
 26 27  1  0
 14 28  2  0
 28 29  1  0
 29 30  2  0
 30 31  1  0
 10  5  1  0
 30 12  1  0
 21 16  1  0
 27 19  1  0
M  END
>  <Compound_ID>  (316) 
CHEMBL3263979

>  <Molecule Name>  (316) 
nan

>  <Molecular Weight>  (316) 
436.95

>  <AlogP>  (316) 
4.23

>  <Smiles>  (316) 
CNC(=O)c1ccccc1Nc1nc(Nc2ccc3c(c2)C(C)CNCC3)ncc1Cl

>  <Standard Type>  (316) 
IC50

>  <Standard Relation>  (316) 
'='

>  <Standard Units>  (316) 
nM

>  <Standard Value>  (316) 
7.9

>  <Assay ChEMBL ID>  (316) 
CHEMBL3267806

>  <Assay Description>  (316) 
Inhibition of purified recombinant ALK (unknown origin) after 60 mins by ELISA

>  <BAO Format ID>  (316) 
BAO_0000357

>  <BAO Label>  (316) 
single protein format

>  <Assay Organism>  (316) 
Homo sapiens

>  <Target ChEMBL ID>  (316) 
CHEMBL4247

>  <Target Name>  (316) 
ALK tyrosine kinase receptor

>  <Target Organism>  (316) 
Homo sapiens

>  <Target Type>  (316) 
SINGLE PROTEIN

>  <Document ChEMBL ID>  (316) 
CHEMBL3259567

>  <Source Description>  (316) 
Scientific Literature

>  <Document Journal>  (316) 
ACS Med Chem Lett

>  <Document Year>  (316) 
2014.0

>  <Active>  (316) 
1.0

>  <bits>  (316) 
<rdkit.DataStructs.cDataStructs.ExplicitBitVect object at 0x000002422F18A0A0>

>  <Group>  (316) 
G2

$$$$

     RDKit          2D

 39 44  0  0  0  0  0  0  0  0999 V2000
  -12.1761   -7.6065    0.0000 C   0  0  0  0  0  0  0  0  0  0  0  0
  -10.9625   -8.4881    0.0000 C   0  0  0  0  0  0  0  0  0  0  0  0
  -11.1193   -9.9799    0.0000 C   0  0  0  0  0  0  0  0  0  0  0  0
   -9.5922   -7.8780    0.0000 C   0  0  0  0  0  0  0  0  0  0  0  0
   -8.3787   -8.7597    0.0000 C   0  0  0  0  0  0  0  0  0  0  0  0
   -7.0084   -8.1496    0.0000 C   0  0  0  0  0  0  0  0  0  0  0  0
   -5.6381   -7.5395    0.0000 C   0  0  0  0  0  0  0  0  0  0  0  0
   -4.2677   -6.9294    0.0000 C   0  0  0  0  0  0  0  0  0  0  0  0
   -4.1110   -5.4376    0.0000 C   0  0  0  0  0  0  0  0  0  0  0  0
   -2.7406   -4.8275    0.0000 C   0  0  0  0  0  0  0  0  0  0  0  0
   -1.5271   -5.7092    0.0000 C   0  0  0  0  0  0  0  0  0  0  0  0
   -1.6839   -7.2010    0.0000 C   0  0  0  0  0  0  0  0  0  0  0  0
   -3.0542   -7.8111    0.0000 C   0  0  0  0  0  0  0  0  0  0  0  0
   -3.2110   -9.3029    0.0000 N   0  0  0  0  0  0  0  0  0  0  0  0
   -4.5813   -9.9130    0.0000 C   0  0  0  0  0  0  0  0  0  0  0  0
   -4.7381  -11.4047    0.0000 C   0  0  0  0  0  0  0  0  0  0  0  0
   -3.5246  -12.2864    0.0000 N   0  0  0  0  0  0  0  0  0  0  0  0
   -3.6814  -13.7782    0.0000 C   0  0  0  0  0  0  0  0  0  0  0  0
   -4.8471  -14.7222    0.0000 C   0  0  0  0  0  0  0  0  0  0  0  0
   -3.9031  -15.8879    0.0000 O   0  0  0  0  0  0  0  0  0  0  0  0
   -2.7374  -14.9439    0.0000 C   0  0  0  0  0  0  0  0  0  0  0  0
   -2.1543  -11.6763    0.0000 C   0  0  0  0  0  0  0  0  0  0  0  0
   -1.9975  -10.1845    0.0000 C   0  0  0  0  0  0  0  0  0  0  0  0
   -0.1568   -5.0991    0.0000 C   0  0  0  0  0  0  0  0  0  0  0  0
    1.3396   -4.9944    0.0000 C   0  0  0  0  0  0  0  0  0  0  0  0
    0.2061   -6.5545    0.0000 C   0  0  0  0  0  0  0  0  0  0  0  0
   -0.0000   -3.6073    0.0000 C   0  0  0  0  0  0  0  0  0  0  0  0
    1.2135   -2.7256    0.0000 N   0  0  0  0  0  0  0  0  0  0  0  0
    0.7500   -1.2990    0.0000 C   0  0  0  0  0  0  0  0  0  0  0  0
    1.5000    0.0000    0.0000 C   0  0  0  0  0  0  0  0  0  0  0  0
    0.7500    1.2990    0.0000 C   0  0  0  0  0  0  0  0  0  0  0  0
    1.5000    2.5981    0.0000 C   0  0  0  0  0  0  0  0  0  0  0  0
    2.2500    3.8971    0.0000 N   0  0  0  0  0  0  0  0  0  0  0  0
   -0.7500    1.2990    0.0000 C   0  0  0  0  0  0  0  0  0  0  0  0
   -1.5000    0.0000    0.0000 C   0  0  0  0  0  0  0  0  0  0  0  0
   -0.7500   -1.2990    0.0000 C   0  0  0  0  0  0  0  0  0  0  0  0
   -1.2135   -2.7256    0.0000 C   0  0  0  0  0  0  0  0  0  0  0  0
   -2.5838   -3.3357    0.0000 C   0  0  0  0  0  0  0  0  0  0  0  0
   -3.7974   -2.4540    0.0000 O   0  0  0  0  0  0  0  0  0  0  0  0
  1  2  1  0
  2  3  1  0
  2  4  1  0
  4  5  1  0
  5  6  1  0
  6  7  3  0
  7  8  1  0
  8  9  2  0
  9 10  1  0
 10 11  2  0
 11 12  1  0
 12 13  2  0
 13 14  1  0
 14 15  1  0
 15 16  1  0
 16 17  1  0
 17 18  1  0
 18 19  1  0
 19 20  1  0
 20 21  1  0
 17 22  1  0
 22 23  1  0
 11 24  1  0
 24 25  1  0
 24 26  1  0
 24 27  1  0
 27 28  1  0
 28 29  1  0
 29 30  2  0
 30 31  1  0
 31 32  1  0
 32 33  3  0
 31 34  2  0
 34 35  1  0
 35 36  2  0
 36 37  1  0
 37 38  1  0
 38 39  2  0
 13  8  1  0
 23 14  1  0
 37 27  2  0
 38 10  1  0
 21 18  1  0
 36 29  1  0
M  END
>  <Compound_ID>  (317) 
CHEMBL3922720

>  <Molecule Name>  (317) 
nan

>  <Molecular Weight>  (317) 
520.68

>  <AlogP>  (317) 
5.22

>  <Smiles>  (317) 
CC(C)CCC#Cc1cc2c(cc1N1CCN(C3COC3)CC1)C(C)(C)c1[nH]c3cc(C#N)ccc3c1C2=O

>  <Standard Type>  (317) 
IC50

>  <Standard Relation>  (317) 
'='

>  <Standard Units>  (317) 
nM

>  <Standard Value>  (317) 
12.27

>  <Assay ChEMBL ID>  (317) 
CHEMBL3887074

>  <Assay Description>  (317) 
Inhibition Assay: ALK-inhibiting activity was measured by following an activity of inhibiting phosphorylation by biotinylated peptide (EGPWLEEEEEAYGWMDF). For the detection of phosphorylation of the biotinylated peptide, time-resolved fluorescence measurement was performed using an anti-phosphorylated tyrosine antibody labeled with europium cryptate and streptavidin conjugated to XL665, i.e., an allophycocyanin derivative.

>  <BAO Format ID>  (317) 
BAO_0000357

>  <BAO Label>  (317) 
single protein format

>  <Assay Organism>  (317) 
Homo sapiens

>  <Target ChEMBL ID>  (317) 
CHEMBL4247

>  <Target Name>  (317) 
ALK tyrosine kinase receptor

>  <Target Organism>  (317) 
Homo sapiens

>  <Target Type>  (317) 
SINGLE PROTEIN

>  <Document ChEMBL ID>  (317) 
CHEMBL3886150

>  <Source Description>  (317) 
BindingDB Database

>  <Document Journal>  (317) 
nan

>  <Document Year>  (317) 
2015.0

>  <Active>  (317) 
1.0

>  <bits>  (317) 
<rdkit.DataStructs.cDataStructs.ExplicitBitVect object at 0x000002422F188510>

>  <Group>  (317) 
G2

$$$$

     RDKit          2D

 33 38  0  0  0  0  0  0  0  0999 V2000
    2.6491   -3.5623    0.0000 C   0  0  0  0  0  0  0  0  0  0  0  0
    1.5000   -2.5981    0.0000 C   0  0  0  0  0  0  0  0  0  0  0  0
    2.6491   -1.6339    0.0000 C   0  0  0  0  0  0  0  0  0  0  0  0
    0.7500   -1.2990    0.0000 C   0  0  0  0  0  0  0  0  0  0  0  0
    1.5000    0.0000    0.0000 C   0  0  0  0  0  0  0  0  0  0  0  0
    0.7500    1.2990    0.0000 C   0  0  0  0  0  0  0  0  0  0  0  0
   -0.7500    1.2990    0.0000 C   0  0  0  0  0  0  0  0  0  0  0  0
   -1.5000    2.5981    0.0000 N   0  0  0  0  0  0  0  0  0  0  0  0
   -0.7500    3.8971    0.0000 C   0  0  0  0  0  0  0  0  0  0  0  0
   -1.5000    5.1962    0.0000 C   0  0  0  0  0  0  0  0  0  0  0  0
   -3.0000    5.1962    0.0000 C   0  0  0  0  0  0  0  0  0  0  0  0
   -3.7500    6.4952    0.0000 N   0  0  0  0  0  0  0  0  0  0  0  0
   -5.2418    6.6520    0.0000 C   0  0  0  0  0  0  0  0  0  0  0  0
   -5.5537    8.1192    0.0000 C   0  0  0  0  0  0  0  0  0  0  0  0
   -4.2546    8.8692    0.0000 C   0  0  0  0  0  0  0  0  0  0  0  0
   -3.1399    7.8655    0.0000 C   0  0  0  0  0  0  0  0  0  0  0  0
   -3.7500    3.8971    0.0000 C   0  0  0  0  0  0  0  0  0  0  0  0
   -3.0000    2.5981    0.0000 C   0  0  0  0  0  0  0  0  0  0  0  0
   -1.5000    0.0000    0.0000 C   0  0  0  0  0  0  0  0  0  0  0  0
   -0.7500   -1.2990    0.0000 C   0  0  0  0  0  0  0  0  0  0  0  0
   -1.5000   -2.5981    0.0000 C   0  0  0  0  0  0  0  0  0  0  0  0
   -3.0000   -2.5981    0.0000 O   0  0  0  0  0  0  0  0  0  0  0  0
   -0.7500   -3.8971    0.0000 C   0  0  0  0  0  0  0  0  0  0  0  0
    0.7500   -3.8971    0.0000 C   0  0  0  0  0  0  0  0  0  0  0  0
    1.2135   -5.3237    0.0000 N   0  0  0  0  0  0  0  0  0  0  0  0
    0.0000   -6.2054    0.0000 C   0  0  0  0  0  0  0  0  0  0  0  0
   -0.1568   -7.6972    0.0000 C   0  0  0  0  0  0  0  0  0  0  0  0
   -1.5271   -8.3073    0.0000 C   0  0  0  0  0  0  0  0  0  0  0  0
   -1.6839   -9.7990    0.0000 C   0  0  0  0  0  0  0  0  0  0  0  0
   -1.8407  -11.2908    0.0000 N   0  0  0  0  0  0  0  0  0  0  0  0
   -2.7406   -7.4256    0.0000 C   0  0  0  0  0  0  0  0  0  0  0  0
   -2.5838   -5.9338    0.0000 C   0  0  0  0  0  0  0  0  0  0  0  0
   -1.2135   -5.3237    0.0000 C   0  0  0  0  0  0  0  0  0  0  0  0
  1  2  1  0
  2  3  1  0
  2  4  1  0
  4  5  2  0
  5  6  1  0
  6  7  2  0
  7  8  1  0
  8  9  1  0
  9 10  1  0
 10 11  1  0
 11 12  1  0
 12 13  1  0
 13 14  1  0
 14 15  1  0
 15 16  1  0
 11 17  1  0
 17 18  1  0
  7 19  1  0
 19 20  2  0
 20 21  1  0
 21 22  2  0
 21 23  1  0
 23 24  2  0
 24 25  1  0
 25 26  1  0
 26 27  2  0
 27 28  1  0
 28 29  1  0
 29 30  3  0
 28 31  2  0
 31 32  1  0
 32 33  2  0
 24  2  1  0
 33 26  1  0
 20  4  1  0
 33 23  1  0
 18  8  1  0
 16 12  1  0
M  END
>  <Compound_ID>  (318) 
CHEMBL3917881

>  <Molecule Name>  (318) 
nan

>  <Molecular Weight>  (318) 
438.58

>  <AlogP>  (318) 
4.97

>  <Smiles>  (318) 
CC1(C)c2ccc(N3CCC(N4CCCC4)CC3)cc2C(=O)c2c1[nH]c1cc(C#N)ccc21

>  <Standard Type>  (318) 
IC50

>  <Standard Relation>  (318) 
'='

>  <Standard Units>  (318) 
nM

>  <Standard Value>  (318) 
15.29

>  <Assay ChEMBL ID>  (318) 
CHEMBL3887074

>  <Assay Description>  (318) 
Inhibition Assay: ALK-inhibiting activity was measured by following an activity of inhibiting phosphorylation by biotinylated peptide (EGPWLEEEEEAYGWMDF). For the detection of phosphorylation of the biotinylated peptide, time-resolved fluorescence measurement was performed using an anti-phosphorylated tyrosine antibody labeled with europium cryptate and streptavidin conjugated to XL665, i.e., an allophycocyanin derivative.

>  <BAO Format ID>  (318) 
BAO_0000357

>  <BAO Label>  (318) 
single protein format

>  <Assay Organism>  (318) 
Homo sapiens

>  <Target ChEMBL ID>  (318) 
CHEMBL4247

>  <Target Name>  (318) 
ALK tyrosine kinase receptor

>  <Target Organism>  (318) 
Homo sapiens

>  <Target Type>  (318) 
SINGLE PROTEIN

>  <Document ChEMBL ID>  (318) 
CHEMBL3886150

>  <Source Description>  (318) 
BindingDB Database

>  <Document Journal>  (318) 
nan

>  <Document Year>  (318) 
2015.0

>  <Active>  (318) 
1.0

>  <bits>  (318) 
<rdkit.DataStructs.cDataStructs.ExplicitBitVect object at 0x000002422F188430>

>  <Group>  (318) 
G2

$$$$

     RDKit          2D

 31 34  0  0  0  0  0  0  0  0999 V2000
    8.2500   -3.8971    0.0000 C   0  0  0  0  0  0  0  0  0  0  0  0
    7.5000   -2.5981    0.0000 C   0  0  0  0  0  0  0  0  0  0  0  0
    6.0000   -2.5981    0.0000 N   0  0  0  0  0  0  0  0  0  0  0  0
    5.2500   -3.8971    0.0000 C   0  0  0  0  0  0  0  0  0  0  0  0
    6.0000   -5.1962    0.0000 C   0  0  0  0  0  0  0  0  0  0  0  0
    5.2500   -1.2990    0.0000 C   0  0  0  0  0  0  0  0  0  0  0  0
    3.7500   -1.2990    0.0000 C   0  0  0  0  0  0  0  0  0  0  0  0
    3.0000    0.0000    0.0000 O   0  0  0  0  0  0  0  0  0  0  0  0
    1.5000    0.0000    0.0000 C   0  0  0  0  0  0  0  0  0  0  0  0
    0.7500   -1.2990    0.0000 C   0  0  0  0  0  0  0  0  0  0  0  0
   -0.7500   -1.2990    0.0000 C   0  0  0  0  0  0  0  0  0  0  0  0
   -1.5000    0.0000    0.0000 C   0  0  0  0  0  0  0  0  0  0  0  0
   -0.7500    1.2990    0.0000 C   0  0  0  0  0  0  0  0  0  0  0  0
    0.7500    1.2990    0.0000 C   0  0  0  0  0  0  0  0  0  0  0  0
   -1.5000    2.5981    0.0000 C   0  0  0  0  0  0  0  0  0  0  0  0
   -1.7605    4.0753    0.0000 C   0  0  0  0  0  0  0  0  0  0  0  0
   -0.0905    3.1111    0.0000 C   0  0  0  0  0  0  0  0  0  0  0  0
   -3.0000    2.5981    0.0000 C   0  0  0  0  0  0  0  0  0  0  0  0
   -4.0037    3.7128    0.0000 N   0  0  0  0  0  0  0  0  0  0  0  0
   -5.3740    3.1027    0.0000 C   0  0  0  0  0  0  0  0  0  0  0  0
   -6.7443    3.7128    0.0000 C   0  0  0  0  0  0  0  0  0  0  0  0
   -7.9579    2.8311    0.0000 C   0  0  0  0  0  0  0  0  0  0  0  0
   -9.3282    3.4412    0.0000 C   0  0  0  0  0  0  0  0  0  0  0  0
  -10.6985    4.0513    0.0000 N   0  0  0  0  0  0  0  0  0  0  0  0
   -7.8011    1.3393    0.0000 C   0  0  0  0  0  0  0  0  0  0  0  0
   -9.0146    0.4577    0.0000 Br  0  0  0  0  0  0  0  0  0  0  0  0
   -6.4307    0.7292    0.0000 C   0  0  0  0  0  0  0  0  0  0  0  0
   -5.2172    1.6109    0.0000 C   0  0  0  0  0  0  0  0  0  0  0  0
   -3.7500    1.2990    0.0000 C   0  0  0  0  0  0  0  0  0  0  0  0
   -3.0000    0.0000    0.0000 C   0  0  0  0  0  0  0  0  0  0  0  0
   -3.7500   -1.2990    0.0000 O   0  0  0  0  0  0  0  0  0  0  0  0
  1  2  1  0
  2  3  1  0
  3  4  1  0
  4  5  1  0
  3  6  1  0
  6  7  1  0
  7  8  1  0
  8  9  1  0
  9 10  2  0
 10 11  1  0
 11 12  2  0
 12 13  1  0
 13 14  2  0
 13 15  1  0
 15 16  1  0
 15 17  1  0
 15 18  1  0
 18 19  1  0
 19 20  1  0
 20 21  2  0
 21 22  1  0
 22 23  1  0
 23 24  3  0
 22 25  2  0
 25 26  1  0
 25 27  1  0
 27 28  2  0
 28 29  1  0
 29 30  1  0
 30 31  2  0
 14  9  1  0
 29 18  2  0
 30 12  1  0
 28 20  1  0
M  END
>  <Compound_ID>  (319) 
CHEMBL3978315

>  <Molecule Name>  (319) 
nan

>  <Molecular Weight>  (319) 
480.41

>  <AlogP>  (319) 
5.39

>  <Smiles>  (319) 
CCN(CC)CCOc1ccc2c(c1)C(C)(C)c1[nH]c3cc(C#N)c(Br)cc3c1C2=O

>  <Standard Type>  (319) 
IC50

>  <Standard Relation>  (319) 
'='

>  <Standard Units>  (319) 
nM

>  <Standard Value>  (319) 
97.92

>  <Assay ChEMBL ID>  (319) 
CHEMBL3887074

>  <Assay Description>  (319) 
Inhibition Assay: ALK-inhibiting activity was measured by following an activity of inhibiting phosphorylation by biotinylated peptide (EGPWLEEEEEAYGWMDF). For the detection of phosphorylation of the biotinylated peptide, time-resolved fluorescence measurement was performed using an anti-phosphorylated tyrosine antibody labeled with europium cryptate and streptavidin conjugated to XL665, i.e., an allophycocyanin derivative.

>  <BAO Format ID>  (319) 
BAO_0000357

>  <BAO Label>  (319) 
single protein format

>  <Assay Organism>  (319) 
Homo sapiens

>  <Target ChEMBL ID>  (319) 
CHEMBL4247

>  <Target Name>  (319) 
ALK tyrosine kinase receptor

>  <Target Organism>  (319) 
Homo sapiens

>  <Target Type>  (319) 
SINGLE PROTEIN

>  <Document ChEMBL ID>  (319) 
CHEMBL3886150

>  <Source Description>  (319) 
BindingDB Database

>  <Document Journal>  (319) 
nan

>  <Document Year>  (319) 
2015.0

>  <Active>  (319) 
1.0

>  <bits>  (319) 
<rdkit.DataStructs.cDataStructs.ExplicitBitVect object at 0x000002422F189D20>

>  <Group>  (319) 
G2

$$$$

     RDKit          2D

 46 50  0  0  0  0  0  0  0  0999 V2000
    0.5271    8.0861    0.0000 C   0  0  0  0  0  0  0  0  0  0  0  0
   -0.8995    7.6226    0.0000 C   0  0  0  0  0  0  0  0  0  0  0  0
   -1.2114    6.1554    0.0000 C   0  0  0  0  0  0  0  0  0  0  0  0
   -2.6380    5.6918    0.0000 C   0  0  0  0  0  0  0  0  0  0  0  0
   -2.9499    4.2246    0.0000 N   0  0  0  0  0  0  0  0  0  0  0  0
   -1.8351    3.2209    0.0000 C   0  0  0  0  0  0  0  0  0  0  0  0
   -0.4086    3.6844    0.0000 N   0  0  0  0  0  0  0  0  0  0  0  0
    0.7062    2.6807    0.0000 C   0  0  0  0  0  0  0  0  0  0  0  0
    2.1328    3.1443    0.0000 N   0  0  0  0  0  0  0  0  0  0  0  0
    2.4446    4.6115    0.0000 C   0  0  0  0  0  0  0  0  0  0  0  0
    1.3299    5.6152    0.0000 C   0  0  0  0  0  0  0  0  0  0  0  0
    1.6418    7.0824    0.0000 C   0  0  0  0  0  0  0  0  0  0  0  0
    3.0684    7.5459    0.0000 C   0  0  0  0  0  0  0  0  0  0  0  0
    4.1831    6.5422    0.0000 C   0  0  0  0  0  0  0  0  0  0  0  0
    3.8712    5.0750    0.0000 C   0  0  0  0  0  0  0  0  0  0  0  0
    4.9859    4.0713    0.0000 S   0  0  0  0  0  0  0  0  0  0  0  0
    3.9822    2.9566    0.0000 O   0  0  0  0  0  0  0  0  0  0  0  0
    5.9896    5.1860    0.0000 O   0  0  0  0  0  0  0  0  0  0  0  0
    6.1006    3.0676    0.0000 C   0  0  0  0  0  0  0  0  0  0  0  0
    5.7888    1.6004    0.0000 C   0  0  0  0  0  0  0  0  0  0  0  0
    7.5272    3.5312    0.0000 C   0  0  0  0  0  0  0  0  0  0  0  0
    0.3943    1.2135    0.0000 C   0  0  0  0  0  0  0  0  0  0  0  0
    1.2760    0.0000    0.0000 C   0  0  0  0  0  0  0  0  0  0  0  0
    2.7760    0.0000    0.0000 C   0  0  0  0  0  0  0  0  0  0  0  0
    0.3943   -1.2135    0.0000 N   0  0  0  0  0  0  0  0  0  0  0  0
   -1.0323   -0.7500    0.0000 N   0  0  0  0  0  0  0  0  0  0  0  0
   -1.0323    0.7500    0.0000 C   0  0  0  0  0  0  0  0  0  0  0  0
   -2.1470    1.7537    0.0000 N   0  0  0  0  0  0  0  0  0  0  0  0
   -3.7527    6.6955    0.0000 C   0  0  0  0  0  0  0  0  0  0  0  0
   -5.1793    6.2320    0.0000 O   0  0  0  0  0  0  0  0  0  0  0  0
   -6.2940    7.2357    0.0000 C   0  0  0  0  0  0  0  0  0  0  0  0
   -7.7206    6.7722    0.0000 C   0  0  0  0  0  0  0  0  0  0  0  0
   -5.9821    8.7029    0.0000 C   0  0  0  0  0  0  0  0  0  0  0  0
   -3.4408    8.1628    0.0000 C   0  0  0  0  0  0  0  0  0  0  0  0
   -2.0143    8.6263    0.0000 C   0  0  0  0  0  0  0  0  0  0  0  0
   -1.7024   10.0935    0.0000 C   0  0  0  0  0  0  0  0  0  0  0  0
   -0.2758   10.5570    0.0000 C   0  0  0  0  0  0  0  0  0  0  0  0
    0.0361   12.0242    0.0000 C   0  0  0  0  0  0  0  0  0  0  0  0
   -1.0786   13.0279    0.0000 N   0  0  0  0  0  0  0  0  0  0  0  0
   -0.7668   14.4952    0.0000 C   0  0  0  0  0  0  0  0  0  0  0  0
    0.6598   14.9587    0.0000 C   0  0  0  0  0  0  0  0  0  0  0  0
    0.9717   16.4259    0.0000 C   0  0  0  0  0  0  0  0  0  0  0  0
    2.3983   16.8894    0.0000 N   0  0  0  0  0  0  0  0  0  0  0  0
   -0.1430   17.4296    0.0000 O   0  0  0  0  0  0  0  0  0  0  0  0
   -2.5052   12.5644    0.0000 C   0  0  0  0  0  0  0  0  0  0  0  0
   -2.8171   11.0972    0.0000 C   0  0  0  0  0  0  0  0  0  0  0  0
  1  2  1  0
  2  3  2  0
  3  4  1  0
  4  5  1  0
  5  6  1  0
  6  7  1  0
  7  8  2  0
  8  9  1  0
  9 10  1  0
 10 11  2  0
 11 12  1  0
 12 13  2  0
 13 14  1  0
 14 15  2  0
 15 16  1  0
 16 17  2  0
 16 18  2  0
 16 19  1  0
 19 20  1  0
 19 21  1  0
  8 22  1  0
 22 23  2  0
 23 24  1  0
 23 25  1  0
 25 26  1  0
 26 27  2  0
 27 28  1  0
  4 29  2  0
 29 30  1  0
 30 31  1  0
 31 32  1  0
 31 33  1  0
 29 34  1  0
 34 35  2  0
 35 36  1  0
 36 37  1  0
 37 38  1  0
 38 39  1  0
 39 40  1  0
 40 41  1  0
 41 42  1  0
 42 43  1  0
 42 44  2  0
 39 45  1  0
 45 46  1  0
 35  2  1  0
 46 36  1  0
 28  6  2  0
 15 10  1  0
 27 22  1  0
M  END
>  <Compound_ID>  (320) 
CHEMBL3651864

>  <Molecule Name>  (320) 
nan

>  <Molecular Weight>  (320) 
648.83

>  <AlogP>  (320) 
5.48

>  <Smiles>  (320) 
Cc1cc(Nc2nc(Nc3ccccc3S(=O)(=O)C(C)C)c3c(C)[nH]nc3n2)c(OC(C)C)cc1C1CCN(CCC(N)=O)CC1

>  <Standard Type>  (320) 
IC50

>  <Standard Relation>  (320) 
'='

>  <Standard Units>  (320) 
nM

>  <Standard Value>  (320) 
18.0

>  <Assay ChEMBL ID>  (320) 
CHEMBL3705165

>  <Assay Description>  (320) 
Enzyme Assay: The inhibition of ALK tyrosine kinase activity may be demonstrated using known methods, for example using the recombinant kinase domain of the ALK in analogy to the VEGF-R kinase assay described in J. Wood et al. Cancer Res. 60, 2178-2189 (2000).

>  <BAO Format ID>  (320) 
BAO_0000357

>  <BAO Label>  (320) 
single protein format

>  <Assay Organism>  (320) 
Homo sapiens

>  <Target ChEMBL ID>  (320) 
CHEMBL4247

>  <Target Name>  (320) 
ALK tyrosine kinase receptor

>  <Target Organism>  (320) 
Homo sapiens

>  <Target Type>  (320) 
SINGLE PROTEIN

>  <Document ChEMBL ID>  (320) 
CHEMBL3638924

>  <Source Description>  (320) 
BindingDB Database

>  <Document Journal>  (320) 
nan

>  <Document Year>  (320) 
2013.0

>  <Active>  (320) 
1.0

>  <bits>  (320) 
<rdkit.DataStructs.cDataStructs.ExplicitBitVect object at 0x000002422F18A6C0>

>  <Group>  (320) 
G2

$$$$

     RDKit          2D

 41 45  0  0  0  0  0  0  0  0999 V2000
    0.5271    8.0861    0.0000 C   0  0  0  0  0  0  0  0  0  0  0  0
   -0.8995    7.6226    0.0000 C   0  0  0  0  0  0  0  0  0  0  0  0
   -1.2114    6.1554    0.0000 C   0  0  0  0  0  0  0  0  0  0  0  0
   -2.6380    5.6918    0.0000 C   0  0  0  0  0  0  0  0  0  0  0  0
   -2.9499    4.2246    0.0000 N   0  0  0  0  0  0  0  0  0  0  0  0
   -1.8351    3.2209    0.0000 C   0  0  0  0  0  0  0  0  0  0  0  0
   -0.4086    3.6844    0.0000 N   0  0  0  0  0  0  0  0  0  0  0  0
    0.7062    2.6807    0.0000 C   0  0  0  0  0  0  0  0  0  0  0  0
    2.1328    3.1443    0.0000 N   0  0  0  0  0  0  0  0  0  0  0  0
    2.4446    4.6115    0.0000 C   0  0  0  0  0  0  0  0  0  0  0  0
    1.3299    5.6152    0.0000 C   0  0  0  0  0  0  0  0  0  0  0  0
    1.6418    7.0824    0.0000 C   0  0  0  0  0  0  0  0  0  0  0  0
    3.0684    7.5459    0.0000 C   0  0  0  0  0  0  0  0  0  0  0  0
    4.1831    6.5422    0.0000 C   0  0  0  0  0  0  0  0  0  0  0  0
    3.8712    5.0750    0.0000 C   0  0  0  0  0  0  0  0  0  0  0  0
    4.9859    4.0713    0.0000 S   0  0  0  0  0  0  0  0  0  0  0  0
    3.9822    2.9566    0.0000 O   0  0  0  0  0  0  0  0  0  0  0  0
    5.9896    5.1860    0.0000 O   0  0  0  0  0  0  0  0  0  0  0  0
    6.1006    3.0676    0.0000 C   0  0  0  0  0  0  0  0  0  0  0  0
    5.7888    1.6004    0.0000 C   0  0  0  0  0  0  0  0  0  0  0  0
    7.5272    3.5312    0.0000 C   0  0  0  0  0  0  0  0  0  0  0  0
    0.3943    1.2135    0.0000 C   0  0  0  0  0  0  0  0  0  0  0  0
    1.2760    0.0000    0.0000 N   0  0  0  0  0  0  0  0  0  0  0  0
    0.3943   -1.2135    0.0000 N   0  0  0  0  0  0  0  0  0  0  0  0
   -1.0323   -0.7500    0.0000 N   0  0  0  0  0  0  0  0  0  0  0  0
   -1.0323    0.7500    0.0000 C   0  0  0  0  0  0  0  0  0  0  0  0
   -2.1470    1.7537    0.0000 N   0  0  0  0  0  0  0  0  0  0  0  0
   -3.7527    6.6955    0.0000 C   0  0  0  0  0  0  0  0  0  0  0  0
   -5.1793    6.2320    0.0000 O   0  0  0  0  0  0  0  0  0  0  0  0
   -6.2940    7.2357    0.0000 C   0  0  0  0  0  0  0  0  0  0  0  0
   -7.7206    6.7722    0.0000 C   0  0  0  0  0  0  0  0  0  0  0  0
   -5.9821    8.7029    0.0000 C   0  0  0  0  0  0  0  0  0  0  0  0
   -3.4408    8.1628    0.0000 C   0  0  0  0  0  0  0  0  0  0  0  0
   -2.0143    8.6263    0.0000 C   0  0  0  0  0  0  0  0  0  0  0  0
   -1.7024   10.0935    0.0000 C   0  0  0  0  0  0  0  0  0  0  0  0
   -0.2758   10.5570    0.0000 C   0  0  0  0  0  0  0  0  0  0  0  0
    0.0361   12.0242    0.0000 C   0  0  0  0  0  0  0  0  0  0  0  0
   -1.0786   13.0279    0.0000 N   0  0  0  0  0  0  0  0  0  0  0  0
   -0.7668   14.4952    0.0000 C   0  0  0  0  0  0  0  0  0  0  0  0
   -2.5052   12.5644    0.0000 C   0  0  0  0  0  0  0  0  0  0  0  0
   -2.8171   11.0972    0.0000 C   0  0  0  0  0  0  0  0  0  0  0  0
  1  2  1  0
  2  3  2  0
  3  4  1  0
  4  5  1  0
  5  6  1  0
  6  7  2  0
  7  8  1  0
  8  9  1  0
  9 10  1  0
 10 11  2  0
 11 12  1  0
 12 13  2  0
 13 14  1  0
 14 15  2  0
 15 16  1  0
 16 17  2  0
 16 18  2  0
 16 19  1  0
 19 20  1  0
 19 21  1  0
  8 22  2  0
 22 23  1  0
 23 24  1  0
 24 25  2  0
 25 26  1  0
 26 27  2  0
  4 28  2  0
 28 29  1  0
 29 30  1  0
 30 31  1  0
 30 32  1  0
 28 33  1  0
 33 34  2  0
 34 35  1  0
 35 36  1  0
 36 37  1  0
 37 38  1  0
 38 39  1  0
 38 40  1  0
 40 41  1  0
 34  2  1  0
 41 35  1  0
 27  6  1  0
 15 10  1  0
 26 22  1  0
M  END
>  <Compound_ID>  (321) 
CHEMBL3651885

>  <Molecule Name>  (321) 
nan

>  <Molecular Weight>  (321) 
578.74

>  <AlogP>  (321) 
5.32

>  <Smiles>  (321) 
Cc1cc(Nc2nc(Nc3ccccc3S(=O)(=O)C(C)C)c3[nH]nnc3n2)c(OC(C)C)cc1C1CCN(C)CC1

>  <Standard Type>  (321) 
IC50

>  <Standard Relation>  (321) 
'='

>  <Standard Units>  (321) 
nM

>  <Standard Value>  (321) 
48.0

>  <Assay ChEMBL ID>  (321) 
CHEMBL3705165

>  <Assay Description>  (321) 
Enzyme Assay: The inhibition of ALK tyrosine kinase activity may be demonstrated using known methods, for example using the recombinant kinase domain of the ALK in analogy to the VEGF-R kinase assay described in J. Wood et al. Cancer Res. 60, 2178-2189 (2000).

>  <BAO Format ID>  (321) 
BAO_0000357

>  <BAO Label>  (321) 
single protein format

>  <Assay Organism>  (321) 
Homo sapiens

>  <Target ChEMBL ID>  (321) 
CHEMBL4247

>  <Target Name>  (321) 
ALK tyrosine kinase receptor

>  <Target Organism>  (321) 
Homo sapiens

>  <Target Type>  (321) 
SINGLE PROTEIN

>  <Document ChEMBL ID>  (321) 
CHEMBL3638924

>  <Source Description>  (321) 
BindingDB Database

>  <Document Journal>  (321) 
nan

>  <Document Year>  (321) 
2013.0

>  <Active>  (321) 
1.0

>  <bits>  (321) 
<rdkit.DataStructs.cDataStructs.ExplicitBitVect object at 0x000002422F18A260>

>  <Group>  (321) 
G2

$$$$

     RDKit          2D

 29 32  0  0  0  0  0  0  0  0999 V2000
    2.6491   -3.5623    0.0000 C   0  0  0  0  0  0  0  0  0  0  0  0
    1.5000   -2.5981    0.0000 C   0  0  0  0  0  0  0  0  0  0  0  0
    2.6491   -1.6339    0.0000 C   0  0  0  0  0  0  0  0  0  0  0  0
    0.7500   -1.2990    0.0000 C   0  0  0  0  0  0  0  0  0  0  0  0
    1.5000    0.0000    0.0000 C   0  0  0  0  0  0  0  0  0  0  0  0
    0.7500    1.2990    0.0000 C   0  0  0  0  0  0  0  0  0  0  0  0
    1.5000    2.5981    0.0000 O   0  0  0  0  0  0  0  0  0  0  0  0
    3.0000    2.5981    0.0000 C   0  0  0  0  0  0  0  0  0  0  0  0
    3.7500    3.8971    0.0000 C   0  0  0  0  0  0  0  0  0  0  0  0
    3.0000    5.1962    0.0000 O   0  0  0  0  0  0  0  0  0  0  0  0
    5.2500    3.8971    0.0000 C   0  0  0  0  0  0  0  0  0  0  0  0
    6.0000    2.5981    0.0000 O   0  0  0  0  0  0  0  0  0  0  0  0
    6.0000    5.1962    0.0000 C   0  0  0  0  0  0  0  0  0  0  0  0
    7.5000    5.1962    0.0000 O   0  0  0  0  0  0  0  0  0  0  0  0
   -0.7500    1.2990    0.0000 C   0  0  0  0  0  0  0  0  0  0  0  0
   -1.5000    0.0000    0.0000 C   0  0  0  0  0  0  0  0  0  0  0  0
   -0.7500   -1.2990    0.0000 C   0  0  0  0  0  0  0  0  0  0  0  0
   -1.5000   -2.5981    0.0000 C   0  0  0  0  0  0  0  0  0  0  0  0
   -3.0000   -2.5981    0.0000 O   0  0  0  0  0  0  0  0  0  0  0  0
   -0.7500   -3.8971    0.0000 C   0  0  0  0  0  0  0  0  0  0  0  0
    0.7500   -3.8971    0.0000 C   0  0  0  0  0  0  0  0  0  0  0  0
    1.2135   -5.3237    0.0000 N   0  0  0  0  0  0  0  0  0  0  0  0
    0.0000   -6.2054    0.0000 C   0  0  0  0  0  0  0  0  0  0  0  0
   -0.1568   -7.6972    0.0000 C   0  0  0  0  0  0  0  0  0  0  0  0
   -1.5271   -8.3073    0.0000 C   0  0  0  0  0  0  0  0  0  0  0  0
   -1.6839   -9.7990    0.0000 I   0  0  0  0  0  0  0  0  0  0  0  0
   -2.7406   -7.4256    0.0000 C   0  0  0  0  0  0  0  0  0  0  0  0
   -2.5838   -5.9338    0.0000 C   0  0  0  0  0  0  0  0  0  0  0  0
   -1.2135   -5.3237    0.0000 C   0  0  0  0  0  0  0  0  0  0  0  0
  1  2  1  0
  2  3  1  0
  2  4  1  0
  4  5  2  0
  5  6  1  0
  6  7  1  0
  7  8  1  0
  8  9  1  0
  9 10  1  1
  9 11  1  0
 11 12  1  1
 11 13  1  0
 13 14  1  0
  6 15  2  0
 15 16  1  0
 16 17  2  0
 17 18  1  0
 18 19  2  0
 18 20  1  0
 20 21  2  0
 21 22  1  0
 22 23  1  0
 23 24  2  0
 24 25  1  0
 25 26  1  0
 25 27  2  0
 27 28  1  0
 28 29  2  0
 21  2  1  0
 29 23  1  0
 17  4  1  0
 29 20  1  0
M  END
>  <Compound_ID>  (322) 
CHEMBL4115197

>  <Molecule Name>  (322) 
nan

>  <Molecular Weight>  (322) 
507.32

>  <AlogP>  (322) 
2.74

>  <Smiles>  (322) 
CC1(C)c2cc(OC[C@@H](O)[C@H](O)CO)ccc2C(=O)c2c1[nH]c1cc(I)ccc21

>  <Standard Type>  (322) 
IC50

>  <Standard Relation>  (322) 
'='

>  <Standard Units>  (322) 
nM

>  <Standard Value>  (322) 
83.2

>  <Assay ChEMBL ID>  (322) 
CHEMBL3887074

>  <Assay Description>  (322) 
Inhibition Assay: ALK-inhibiting activity was measured by following an activity of inhibiting phosphorylation by biotinylated peptide (EGPWLEEEEEAYGWMDF). For the detection of phosphorylation of the biotinylated peptide, time-resolved fluorescence measurement was performed using an anti-phosphorylated tyrosine antibody labeled with europium cryptate and streptavidin conjugated to XL665, i.e., an allophycocyanin derivative.

>  <BAO Format ID>  (322) 
BAO_0000357

>  <BAO Label>  (322) 
single protein format

>  <Assay Organism>  (322) 
Homo sapiens

>  <Target ChEMBL ID>  (322) 
CHEMBL4247

>  <Target Name>  (322) 
ALK tyrosine kinase receptor

>  <Target Organism>  (322) 
Homo sapiens

>  <Target Type>  (322) 
SINGLE PROTEIN

>  <Document ChEMBL ID>  (322) 
CHEMBL3886150

>  <Source Description>  (322) 
BindingDB Database

>  <Document Journal>  (322) 
nan

>  <Document Year>  (322) 
2015.0

>  <Active>  (322) 
1.0

>  <bits>  (322) 
<rdkit.DataStructs.cDataStructs.ExplicitBitVect object at 0x000002422F18A340>

>  <Group>  (322) 
G2

$$$$

     RDKit          2D

 35 40  0  0  0  0  0  0  0  0999 V2000
   -6.8516   -6.6578    0.0000 C   0  0  0  0  0  0  0  0  0  0  0  0
   -5.6381   -7.5395    0.0000 C   0  0  0  0  0  0  0  0  0  0  0  0
   -5.7949   -9.0313    0.0000 C   0  0  0  0  0  0  0  0  0  0  0  0
   -4.2677   -6.9294    0.0000 C   0  0  0  0  0  0  0  0  0  0  0  0
   -4.1110   -5.4376    0.0000 C   0  0  0  0  0  0  0  0  0  0  0  0
   -2.7406   -4.8275    0.0000 C   0  0  0  0  0  0  0  0  0  0  0  0
   -1.5271   -5.7092    0.0000 C   0  0  0  0  0  0  0  0  0  0  0  0
   -1.6839   -7.2010    0.0000 C   0  0  0  0  0  0  0  0  0  0  0  0
   -3.0542   -7.8111    0.0000 C   0  0  0  0  0  0  0  0  0  0  0  0
   -3.2110   -9.3029    0.0000 N   0  0  0  0  0  0  0  0  0  0  0  0
   -4.5813   -9.9130    0.0000 C   0  0  0  0  0  0  0  0  0  0  0  0
   -4.7381  -11.4047    0.0000 C   0  0  0  0  0  0  0  0  0  0  0  0
   -3.5246  -12.2864    0.0000 N   0  0  0  0  0  0  0  0  0  0  0  0
   -3.6814  -13.7782    0.0000 C   0  0  0  0  0  0  0  0  0  0  0  0
   -4.8471  -14.7222    0.0000 C   0  0  0  0  0  0  0  0  0  0  0  0
   -3.9031  -15.8879    0.0000 O   0  0  0  0  0  0  0  0  0  0  0  0
   -2.7374  -14.9439    0.0000 C   0  0  0  0  0  0  0  0  0  0  0  0
   -2.1543  -11.6763    0.0000 C   0  0  0  0  0  0  0  0  0  0  0  0
   -1.9975  -10.1845    0.0000 C   0  0  0  0  0  0  0  0  0  0  0  0
   -0.1568   -5.0991    0.0000 C   0  0  0  0  0  0  0  0  0  0  0  0
    1.3396   -4.9944    0.0000 C   0  0  0  0  0  0  0  0  0  0  0  0
    0.2061   -6.5545    0.0000 C   0  0  0  0  0  0  0  0  0  0  0  0
   -0.0000   -3.6073    0.0000 C   0  0  0  0  0  0  0  0  0  0  0  0
    1.2135   -2.7256    0.0000 N   0  0  0  0  0  0  0  0  0  0  0  0
    0.7500   -1.2990    0.0000 C   0  0  0  0  0  0  0  0  0  0  0  0
    1.5000    0.0000    0.0000 C   0  0  0  0  0  0  0  0  0  0  0  0
    0.7500    1.2990    0.0000 C   0  0  0  0  0  0  0  0  0  0  0  0
    1.5000    2.5981    0.0000 C   0  0  0  0  0  0  0  0  0  0  0  0
    2.2500    3.8971    0.0000 N   0  0  0  0  0  0  0  0  0  0  0  0
   -0.7500    1.2990    0.0000 C   0  0  0  0  0  0  0  0  0  0  0  0
   -1.5000    0.0000    0.0000 C   0  0  0  0  0  0  0  0  0  0  0  0
   -0.7500   -1.2990    0.0000 C   0  0  0  0  0  0  0  0  0  0  0  0
   -1.2135   -2.7256    0.0000 C   0  0  0  0  0  0  0  0  0  0  0  0
   -2.5838   -3.3357    0.0000 C   0  0  0  0  0  0  0  0  0  0  0  0
   -3.7974   -2.4540    0.0000 O   0  0  0  0  0  0  0  0  0  0  0  0
  1  2  1  0
  2  3  1  0
  2  4  1  0
  4  5  2  0
  5  6  1  0
  6  7  2  0
  7  8  1  0
  8  9  2  0
  9 10  1  0
 10 11  1  0
 11 12  1  0
 12 13  1  0
 13 14  1  0
 14 15  1  0
 15 16  1  0
 16 17  1  0
 13 18  1  0
 18 19  1  0
  7 20  1  0
 20 21  1  0
 20 22  1  0
 20 23  1  0
 23 24  1  0
 24 25  1  0
 25 26  2  0
 26 27  1  0
 27 28  1  0
 28 29  3  0
 27 30  2  0
 30 31  1  0
 31 32  2  0
 32 33  1  0
 33 34  1  0
 34 35  2  0
  9  4  1  0
 19 10  1  0
 33 23  2  0
 34  6  1  0
 17 14  1  0
 32 25  1  0
M  END
>  <Compound_ID>  (323) 
CHEMBL1823223

>  <Molecule Name>  (323) 
nan

>  <Molecular Weight>  (323) 
468.6

>  <AlogP>  (323) 
4.55

>  <Smiles>  (323) 
CC(C)c1cc2c(cc1N1CCN(C3COC3)CC1)C(C)(C)c1[nH]c3cc(C#N)ccc3c1C2=O

>  <Standard Type>  (323) 
IC50

>  <Standard Relation>  (323) 
'='

>  <Standard Units>  (323) 
nM

>  <Standard Value>  (323) 
66.4

>  <Assay ChEMBL ID>  (323) 
CHEMBL1828297

>  <Assay Description>  (323) 
Inhibition of ALK activity by TR-FRET assay

>  <BAO Format ID>  (323) 
BAO_0000357

>  <BAO Label>  (323) 
single protein format

>  <Assay Organism>  (323) 
None

>  <Target ChEMBL ID>  (323) 
CHEMBL4247

>  <Target Name>  (323) 
ALK tyrosine kinase receptor

>  <Target Organism>  (323) 
Homo sapiens

>  <Target Type>  (323) 
SINGLE PROTEIN

>  <Document ChEMBL ID>  (323) 
CHEMBL1821705

>  <Source Description>  (323) 
Scientific Literature

>  <Document Journal>  (323) 
J Med Chem

>  <Document Year>  (323) 
2011.0

>  <Active>  (323) 
1.0

>  <bits>  (323) 
<rdkit.DataStructs.cDataStructs.ExplicitBitVect object at 0x000002422F189150>

>  <Group>  (323) 
G2

$$$$

     RDKit          2D

 37 40  0  0  0  0  0  0  0  0999 V2000
    3.0000    0.0000    0.0000 C   0  0  0  0  0  0  0  0  0  0  0  0
    1.5000    0.0000    0.0000 C   0  0  0  0  0  0  0  0  0  0  0  0
    0.7500   -1.2990    0.0000 C   0  0  0  0  0  0  0  0  0  0  0  0
   -0.7500   -1.2990    0.0000 C   0  0  0  0  0  0  0  0  0  0  0  0
   -1.5000   -2.5981    0.0000 N   0  0  0  0  0  0  0  0  0  0  0  0
   -3.0000   -2.5981    0.0000 C   0  0  0  0  0  0  0  0  0  0  0  0
   -3.7500   -1.2990    0.0000 N   0  0  0  0  0  0  0  0  0  0  0  0
   -5.2500   -1.2990    0.0000 C   0  0  0  0  0  0  0  0  0  0  0  0
   -6.0000   -2.5981    0.0000 C   0  0  0  0  0  0  0  0  0  0  0  0
   -7.5000   -2.5981    0.0000 Cl  0  0  0  0  0  0  0  0  0  0  0  0
   -5.2500   -3.8971    0.0000 C   0  0  0  0  0  0  0  0  0  0  0  0
   -6.0000   -5.1962    0.0000 N   0  0  0  0  0  0  0  0  0  0  0  0
   -5.2500   -6.4952    0.0000 C   0  0  0  0  0  0  0  0  0  0  0  0
   -3.7582   -6.6520    0.0000 C   0  0  0  0  0  0  0  0  0  0  0  0
   -3.4463   -8.1192    0.0000 N   0  0  0  0  0  0  0  0  0  0  0  0
   -2.0760   -8.7293    0.0000 C   0  0  0  0  0  0  0  0  0  0  0  0
   -4.7454   -8.8692    0.0000 N   0  0  0  0  0  0  0  0  0  0  0  0
   -5.8601   -7.8655    0.0000 C   0  0  0  0  0  0  0  0  0  0  0  0
   -7.3273   -8.1774    0.0000 S   0  0  0  0  0  0  0  0  0  0  0  0
   -7.6392   -6.7102    0.0000 O   0  0  0  0  0  0  0  0  0  0  0  0
   -7.0155   -9.6446    0.0000 O   0  0  0  0  0  0  0  0  0  0  0  0
   -8.7945   -8.4892    0.0000 C   0  0  0  0  0  0  0  0  0  0  0  0
   -9.7982   -7.3745    0.0000 C   0  0  0  0  0  0  0  0  0  0  0  0
   -9.2581   -9.9158    0.0000 C   0  0  0  0  0  0  0  0  0  0  0  0
   -3.7500   -3.8971    0.0000 N   0  0  0  0  0  0  0  0  0  0  0  0
   -1.5000    0.0000    0.0000 C   0  0  0  0  0  0  0  0  0  0  0  0
   -3.0000    0.0000    0.0000 O   0  0  0  0  0  0  0  0  0  0  0  0
   -3.7500    1.2990    0.0000 C   0  0  0  0  0  0  0  0  0  0  0  0
   -5.0490    2.0490    0.0000 C   0  0  0  0  0  0  0  0  0  0  0  0
   -3.7500    2.7990    0.0000 C   0  0  0  0  0  0  0  0  0  0  0  0
   -0.7500    1.2990    0.0000 C   0  0  0  0  0  0  0  0  0  0  0  0
    0.7500    1.2990    0.0000 C   0  0  0  0  0  0  0  0  0  0  0  0
    1.5000    2.5981    0.0000 C   0  0  0  0  0  0  0  0  0  0  0  0
    0.7500    3.8971    0.0000 C   0  0  0  0  0  0  0  0  0  0  0  0
    1.5000    5.1962    0.0000 N   0  0  0  0  0  0  0  0  0  0  0  0
    0.7500    6.4952    0.0000 C   0  0  0  0  0  0  0  0  0  0  0  0
    3.0000    5.1962    0.0000 C   0  0  0  0  0  0  0  0  0  0  0  0
  1  2  1  0
  2  3  2  0
  3  4  1  0
  4  5  1  0
  5  6  1  0
  6  7  2  0
  7  8  1  0
  8  9  2  0
  9 10  1  0
  9 11  1  0
 11 12  1  0
 12 13  1  0
 13 14  2  0
 14 15  1  0
 15 16  1  0
 15 17  1  0
 17 18  2  0
 18 19  1  0
 19 20  2  0
 19 21  2  0
 19 22  1  0
 22 23  1  0
 22 24  1  0
 11 25  2  0
  4 26  2  0
 26 27  1  0
 27 28  1  0
 28 29  1  0
 29 30  1  0
 26 31  1  0
 31 32  2  0
 32 33  1  0
 33 34  1  0
 34 35  1  0
 35 36  1  0
 35 37  1  0
 32  2  1  0
 25  6  1  0
 30 28  1  0
 18 13  1  0
M  END
>  <Compound_ID>  (324) 
CHEMBL3604652

>  <Molecule Name>  (324) 
nan

>  <Molecular Weight>  (324) 
548.11

>  <AlogP>  (324) 
4.49

>  <Smiles>  (324) 
Cc1cc(Nc2ncc(Cl)c(Nc3cn(C)nc3S(=O)(=O)C(C)C)n2)c(OC2CC2)cc1CCN(C)C

>  <Standard Type>  (324) 
IC50

>  <Standard Relation>  (324) 
'='

>  <Standard Units>  (324) 
nM

>  <Standard Value>  (324) 
2.0

>  <Assay ChEMBL ID>  (324) 
CHEMBL3607640

>  <Assay Description>  (324) 
Inhibition of wild type human recombinant ALK using TK substrate-biotin incubated for 30 mins by HTRF assay

>  <BAO Format ID>  (324) 
BAO_0000357

>  <BAO Label>  (324) 
single protein format

>  <Assay Organism>  (324) 
Homo sapiens

>  <Target ChEMBL ID>  (324) 
CHEMBL4247

>  <Target Name>  (324) 
ALK tyrosine kinase receptor

>  <Target Organism>  (324) 
Homo sapiens

>  <Target Type>  (324) 
SINGLE PROTEIN

>  <Document ChEMBL ID>  (324) 
CHEMBL3603807

>  <Source Description>  (324) 
Scientific Literature

>  <Document Journal>  (324) 
Bioorg Med Chem Lett

>  <Document Year>  (324) 
2015.0

>  <Active>  (324) 
1.0

>  <bits>  (324) 
<rdkit.DataStructs.cDataStructs.ExplicitBitVect object at 0x000002422F18AA40>

>  <Group>  (324) 
G2

$$$$

     RDKit          2D

 37 40  0  0  0  0  0  0  0  0999 V2000
    5.2500   -1.2990    0.0000 C   0  0  0  0  0  0  0  0  0  0  0  0
    3.7500   -1.2990    0.0000 N   0  0  0  0  0  0  0  0  0  0  0  0
    3.0000    0.0000    0.0000 C   0  0  0  0  0  0  0  0  0  0  0  0
    3.7500    1.2990    0.0000 O   0  0  0  0  0  0  0  0  0  0  0  0
    1.5000    0.0000    0.0000 C   0  0  0  0  0  0  0  0  0  0  0  0
    0.7500   -1.2990    0.0000 C   0  0  0  0  0  0  0  0  0  0  0  0
   -0.7500   -1.2990    0.0000 C   0  0  0  0  0  0  0  0  0  0  0  0
   -1.5000    0.0000    0.0000 C   0  0  0  0  0  0  0  0  0  0  0  0
   -0.7500    1.2990    0.0000 C   0  0  0  0  0  0  0  0  0  0  0  0
    0.7500    1.2990    0.0000 C   0  0  0  0  0  0  0  0  0  0  0  0
    1.5000    2.5981    0.0000 N   0  0  0  0  0  0  0  0  0  0  0  0
    0.7500    3.8971    0.0000 C   0  0  0  0  0  0  0  0  0  0  0  0
    1.5000    5.1962    0.0000 N   0  0  0  0  0  0  0  0  0  0  0  0
    0.7500    6.4952    0.0000 C   0  0  0  0  0  0  0  0  0  0  0  0
    1.5000    7.7942    0.0000 N   0  0  0  0  0  0  0  0  0  0  0  0
    3.0000    7.7942    0.0000 C   0  0  0  0  0  0  0  0  0  0  0  0
    3.7500    6.4952    0.0000 C   0  0  0  0  0  0  0  0  0  0  0  0
    5.2500    6.4952    0.0000 C   0  0  0  0  0  0  0  0  0  0  0  0
    6.0000    7.7942    0.0000 C   0  0  0  0  0  0  0  0  0  0  0  0
    5.2500    9.0933    0.0000 C   0  0  0  0  0  0  0  0  0  0  0  0
    6.0000   10.3923    0.0000 N   0  0  0  0  0  0  0  0  0  0  0  0
    7.5000   10.3923    0.0000 C   0  0  0  0  0  0  0  0  0  0  0  0
    8.2500    9.0933    0.0000 O   0  0  0  0  0  0  0  0  0  0  0  0
    8.2500   11.6913    0.0000 C   0  0  0  0  0  0  0  0  0  0  0  0
    9.7500   11.6913    0.0000 N   0  0  0  0  0  0  0  0  0  0  0  0
   10.5000   12.9904    0.0000 C   0  0  0  0  0  0  0  0  0  0  0  0
    9.7500   14.2894    0.0000 O   0  0  0  0  0  0  0  0  0  0  0  0
   12.0000   12.9904    0.0000 C   0  0  0  0  0  0  0  0  0  0  0  0
   12.8817   14.2039    0.0000 C   0  0  0  0  0  0  0  0  0  0  0  0
   14.3083   13.7404    0.0000 C   0  0  0  0  0  0  0  0  0  0  0  0
   14.3083   12.2404    0.0000 C   0  0  0  0  0  0  0  0  0  0  0  0
   12.8817   11.7769    0.0000 N   0  0  0  0  0  0  0  0  0  0  0  0
    3.7500    9.0933    0.0000 C   0  0  0  0  0  0  0  0  0  0  0  0
   -0.7500    6.4952    0.0000 N   0  0  0  0  0  0  0  0  0  0  0  0
   -1.5000    5.1962    0.0000 C   0  0  0  0  0  0  0  0  0  0  0  0
   -0.7500    3.8971    0.0000 C   0  0  0  0  0  0  0  0  0  0  0  0
   -1.5000    2.5981    0.0000 Cl  0  0  0  0  0  0  0  0  0  0  0  0
  1  2  1  0
  2  3  1  0
  3  4  2  0
  3  5  1  0
  5  6  2  0
  6  7  1  0
  7  8  2  0
  8  9  1  0
  9 10  2  0
 10 11  1  0
 11 12  1  0
 12 13  2  0
 13 14  1  0
 14 15  1  0
 15 16  1  0
 16 17  2  0
 17 18  1  0
 18 19  2  0
 19 20  1  0
 20 21  1  0
 21 22  1  0
 22 23  2  0
 22 24  1  0
 24 25  1  0
 25 26  1  0
 26 27  2  0
 26 28  1  0
 28 29  1  0
 29 30  1  0
 30 31  1  0
 31 32  1  0
 20 33  2  0
 14 34  2  0
 34 35  1  0
 35 36  2  0
 36 37  1  0
 10  5  1  0
 36 12  1  0
 33 16  1  0
 32 28  1  0
M  END
>  <Compound_ID>  (325) 
CHEMBL3357437

>  <Molecule Name>  (325) 
nan

>  <Molecular Weight>  (325) 
523.0

>  <AlogP>  (325) 
2.78

>  <Smiles>  (325) 
CNC(=O)c1ccccc1Nc1nc(Nc2cccc(NC(=O)CNC(=O)C3CCCN3)c2)ncc1Cl

>  <Standard Type>  (325) 
IC50

>  <Standard Relation>  (325) 
'='

>  <Standard Units>  (325) 
nM

>  <Standard Value>  (325) 
80.3

>  <Assay ChEMBL ID>  (325) 
CHEMBL3364272

>  <Assay Description>  (325) 
Inhibition of ALK (unknown origin) after 60 mins by ELISA

>  <BAO Format ID>  (325) 
BAO_0000357

>  <BAO Label>  (325) 
single protein format

>  <Assay Organism>  (325) 
Homo sapiens

>  <Target ChEMBL ID>  (325) 
CHEMBL4247

>  <Target Name>  (325) 
ALK tyrosine kinase receptor

>  <Target Organism>  (325) 
Homo sapiens

>  <Target Type>  (325) 
SINGLE PROTEIN

>  <Document ChEMBL ID>  (325) 
CHEMBL3351234

>  <Source Description>  (325) 
Scientific Literature

>  <Document Journal>  (325) 
J Med Chem

>  <Document Year>  (325) 
2015.0

>  <Active>  (325) 
1.0

>  <bits>  (325) 
<rdkit.DataStructs.cDataStructs.ExplicitBitVect object at 0x000002422F1897E0>

>  <Group>  (325) 
G2

$$$$

     RDKit          2D

 36 40  0  0  0  0  0  0  0  0999 V2000
   -6.2940    7.2357    0.0000 C   0  0  0  0  0  0  0  0  0  0  0  0
   -5.1793    6.2320    0.0000 O   0  0  0  0  0  0  0  0  0  0  0  0
   -3.7527    6.6955    0.0000 C   0  0  0  0  0  0  0  0  0  0  0  0
   -3.4408    8.1628    0.0000 C   0  0  0  0  0  0  0  0  0  0  0  0
   -2.0143    8.6263    0.0000 C   0  0  0  0  0  0  0  0  0  0  0  0
   -1.7024   10.0935    0.0000 C   0  0  0  0  0  0  0  0  0  0  0  0
   -0.2758   10.5570    0.0000 C   0  0  0  0  0  0  0  0  0  0  0  0
    0.0361   12.0242    0.0000 C   0  0  0  0  0  0  0  0  0  0  0  0
   -1.0786   13.0279    0.0000 N   0  0  0  0  0  0  0  0  0  0  0  0
   -2.5052   12.5644    0.0000 C   0  0  0  0  0  0  0  0  0  0  0  0
   -2.8171   11.0972    0.0000 C   0  0  0  0  0  0  0  0  0  0  0  0
   -0.8995    7.6226    0.0000 C   0  0  0  0  0  0  0  0  0  0  0  0
   -1.2114    6.1554    0.0000 C   0  0  0  0  0  0  0  0  0  0  0  0
   -2.6380    5.6918    0.0000 C   0  0  0  0  0  0  0  0  0  0  0  0
   -2.9499    4.2246    0.0000 N   0  0  0  0  0  0  0  0  0  0  0  0
   -1.8351    3.2209    0.0000 C   0  0  0  0  0  0  0  0  0  0  0  0
   -0.4086    3.6844    0.0000 N   0  0  0  0  0  0  0  0  0  0  0  0
    0.7062    2.6807    0.0000 C   0  0  0  0  0  0  0  0  0  0  0  0
    2.1328    3.1443    0.0000 C   0  0  0  0  0  0  0  0  0  0  0  0
    2.4446    4.6115    0.0000 C   0  0  0  0  0  0  0  0  0  0  0  0
    3.8712    5.0750    0.0000 C   0  0  0  0  0  0  0  0  0  0  0  0
    4.1831    6.5422    0.0000 C   0  0  0  0  0  0  0  0  0  0  0  0
    3.0684    7.5459    0.0000 C   0  0  0  0  0  0  0  0  0  0  0  0
    1.6418    7.0824    0.0000 C   0  0  0  0  0  0  0  0  0  0  0  0
    0.5271    8.0861    0.0000 Cl  0  0  0  0  0  0  0  0  0  0  0  0
    1.3299    5.6152    0.0000 C   0  0  0  0  0  0  0  0  0  0  0  0
   -0.0967    5.1517    0.0000 Cl  0  0  0  0  0  0  0  0  0  0  0  0
    0.3943    1.2135    0.0000 N   0  0  0  0  0  0  0  0  0  0  0  0
    1.2760    0.0000    0.0000 C   0  0  0  0  0  0  0  0  0  0  0  0
    0.3943   -1.2135    0.0000 N   0  0  0  0  0  0  0  0  0  0  0  0
   -1.0323   -0.7500    0.0000 N   0  0  0  0  0  0  0  0  0  0  0  0
   -1.0323    0.7500    0.0000 C   0  0  0  0  0  0  0  0  0  0  0  0
   -2.1470    1.7537    0.0000 C   0  0  0  0  0  0  0  0  0  0  0  0
   -3.5736    1.2902    0.0000 C   0  0  0  0  0  0  0  0  0  0  0  0
   -4.6883    2.2939    0.0000 N   0  0  0  0  0  0  0  0  0  0  0  0
   -3.8855   -0.1771    0.0000 O   0  0  0  0  0  0  0  0  0  0  0  0
  1  2  1  0
  2  3  1  0
  3  4  2  0
  4  5  1  0
  5  6  1  0
  6  7  1  0
  7  8  1  0
  8  9  1  0
  9 10  1  0
 10 11  1  0
  5 12  2  0
 12 13  1  0
 13 14  2  0
 14 15  1  0
 15 16  1  0
 16 17  1  0
 17 18  2  0
 18 19  1  0
 19 20  1  0
 20 21  2  0
 21 22  1  0
 22 23  2  0
 23 24  1  0
 24 25  1  0
 24 26  2  0
 26 27  1  0
 18 28  1  0
 28 29  1  0
 29 30  2  0
 30 31  1  0
 31 32  2  0
 32 33  1  0
 33 34  1  0
 34 35  1  0
 34 36  2  0
 14  3  1  0
 33 16  2  0
 11  6  1  0
 26 20  1  0
 32 28  1  0
M  END
>  <Compound_ID>  (326) 
CHEMBL3908626

>  <Molecule Name>  (326) 
nan

>  <Molecular Weight>  (326) 
526.43

>  <AlogP>  (326) 
4.34

>  <Smiles>  (326) 
COc1cc(C2CCNCC2)ccc1Nc1nc(Cc2cccc(Cl)c2Cl)n2cnnc2c1C(N)=O

>  <Standard Type>  (326) 
Ki

>  <Standard Relation>  (326) 
'='

>  <Standard Units>  (326) 
nM

>  <Standard Value>  (326) 
2.0

>  <Assay ChEMBL ID>  (326) 
CHEMBL3887723

>  <Assay Description>  (326) 
Enzyme Inhibition Assay: ALK kinase assays were conducted with the indicated final concentrations unless otherwise specified. In 384 well black plates (Axygen), 8 ul of compound (2% DMSO) was incubated with 8 ul Lck-peptide substrate (0.5 uM, biotin-Ahx-GAEEEIYAAFFA-COOH) and 8 ul of a mixture of ALK (3 nM, Millipore) and ATP (50 uM) in reaction buffer (50 mM Hepes, pH 7.4; 10 mM MgCl2; 2 mM MnCl2; 0.1 mM sodium orthovanadate; 0.01% BSA and 1 mM DTT (added fresh before assay) for 1 h at room temperature. Reactions were then quenched by the addition of 30 ul quench solution (streptavidin-allophycocyanin and Europium-cryptate PT66 monoclonal antibody in 40 mM Hepes, pH 7.4; 480 mM KF; 66 mM EDTA; 0.01% Tween-20; and 0.1% BSA) at room temperature. Plates were read 1 h after quenching on an Envision Multilaber Reader and IC50 values were calculated using a sigmoidal fit of the concentration/inhibition response curves. These values were converted to apparent Ki values.

>  <BAO Format ID>  (326) 
BAO_0000357

>  <BAO Label>  (326) 
single protein format

>  <Assay Organism>  (326) 
Homo sapiens

>  <Target ChEMBL ID>  (326) 
CHEMBL4247

>  <Target Name>  (326) 
ALK tyrosine kinase receptor

>  <Target Organism>  (326) 
Homo sapiens

>  <Target Type>  (326) 
SINGLE PROTEIN

>  <Document ChEMBL ID>  (326) 
CHEMBL3886424

>  <Source Description>  (326) 
BindingDB Database

>  <Document Journal>  (326) 
nan

>  <Document Year>  (326) 
2015.0

>  <Active>  (326) 
1.0

>  <bits>  (326) 
<rdkit.DataStructs.cDataStructs.ExplicitBitVect object at 0x000002422F188660>

>  <Group>  (326) 
G2

$$$$

     RDKit          2D

 40 44  0  0  0  0  0  0  0  0999 V2000
  -12.9904   -3.6073    0.0000 C   0  0  0  0  0  0  0  0  0  0  0  0
  -12.9904   -2.1073    0.0000 C   0  0  0  0  0  0  0  0  0  0  0  0
  -14.2894   -1.3573    0.0000 C   0  0  0  0  0  0  0  0  0  0  0  0
  -11.6913   -1.3573    0.0000 S   0  0  0  0  0  0  0  0  0  0  0  0
  -10.9413   -2.6563    0.0000 O   0  0  0  0  0  0  0  0  0  0  0  0
  -12.4413   -0.0583    0.0000 O   0  0  0  0  0  0  0  0  0  0  0  0
  -10.3923   -0.6073    0.0000 C   0  0  0  0  0  0  0  0  0  0  0  0
  -10.3923    0.8927    0.0000 C   0  0  0  0  0  0  0  0  0  0  0  0
   -9.0933    1.6427    0.0000 C   0  0  0  0  0  0  0  0  0  0  0  0
   -7.7942    0.8927    0.0000 C   0  0  0  0  0  0  0  0  0  0  0  0
   -7.7942   -0.6073    0.0000 C   0  0  0  0  0  0  0  0  0  0  0  0
   -9.0933   -1.3573    0.0000 C   0  0  0  0  0  0  0  0  0  0  0  0
   -9.0933   -2.8573    0.0000 N   0  0  0  0  0  0  0  0  0  0  0  0
   -7.7942   -3.6073    0.0000 C   0  0  0  0  0  0  0  0  0  0  0  0
   -7.7942   -5.1073    0.0000 N   0  0  0  0  0  0  0  0  0  0  0  0
   -6.4952   -5.8573    0.0000 C   0  0  0  0  0  0  0  0  0  0  0  0
   -6.4952   -7.3573    0.0000 N   0  0  0  0  0  0  0  0  0  0  0  0
   -5.1962   -8.1073    0.0000 C   0  0  0  0  0  0  0  0  0  0  0  0
   -5.1962   -9.6073    0.0000 C   0  0  0  0  0  0  0  0  0  0  0  0
   -3.8971  -10.3573    0.0000 C   0  0  0  0  0  0  0  0  0  0  0  0
   -2.5981   -9.6073    0.0000 C   0  0  0  0  0  0  0  0  0  0  0  0
   -2.5981   -8.1073    0.0000 C   0  0  0  0  0  0  0  0  0  0  0  0
   -1.2990   -7.3573    0.0000 N   0  0  0  0  0  0  0  0  0  0  0  0
   -1.2990   -5.8573    0.0000 C   0  0  0  0  0  0  0  0  0  0  0  0
   -2.5981   -5.1073    0.0000 O   0  0  0  0  0  0  0  0  0  0  0  0
   -0.0000   -5.1073    0.0000 C   0  0  0  0  0  0  0  0  0  0  0  0
   -0.0000   -3.6073    0.0000 C   0  0  0  0  0  0  0  0  0  0  0  0
    1.2135   -2.7256    0.0000 C   0  0  0  0  0  0  0  0  0  0  0  0
    0.7500   -1.2990    0.0000 C   0  0  0  0  0  0  0  0  0  0  0  0
    1.5000    0.0000    0.0000 C   0  0  0  0  0  0  0  0  0  0  0  0
    0.7500    1.2990    0.0000 C   0  0  0  0  0  0  0  0  0  0  0  0
   -0.7500    1.2990    0.0000 C   0  0  0  0  0  0  0  0  0  0  0  0
   -1.5000    0.0000    0.0000 C   0  0  0  0  0  0  0  0  0  0  0  0
   -0.7500   -1.2990    0.0000 C   0  0  0  0  0  0  0  0  0  0  0  0
   -1.2135   -2.7256    0.0000 N   0  0  0  0  0  0  0  0  0  0  0  0
   -3.8971   -7.3573    0.0000 C   0  0  0  0  0  0  0  0  0  0  0  0
   -5.1962   -5.1073    0.0000 N   0  0  0  0  0  0  0  0  0  0  0  0
   -5.1962   -3.6073    0.0000 C   0  0  0  0  0  0  0  0  0  0  0  0
   -6.4952   -2.8573    0.0000 C   0  0  0  0  0  0  0  0  0  0  0  0
   -6.4952   -1.3573    0.0000 Cl  0  0  0  0  0  0  0  0  0  0  0  0
  1  2  1  0
  2  3  1  0
  2  4  1  0
  4  5  2  0
  4  6  2  0
  4  7  1  0
  7  8  2  0
  8  9  1  0
  9 10  2  0
 10 11  1  0
 11 12  2  0
 12 13  1  0
 13 14  1  0
 14 15  2  0
 15 16  1  0
 16 17  1  0
 17 18  1  0
 18 19  2  0
 19 20  1  0
 20 21  2  0
 21 22  1  0
 22 23  1  0
 23 24  1  0
 24 25  2  0
 24 26  1  0
 26 27  1  0
 27 28  2  0
 28 29  1  0
 29 30  2  0
 30 31  1  0
 31 32  2  0
 32 33  1  0
 33 34  2  0
 34 35  1  0
 22 36  2  0
 16 37  2  0
 37 38  1  0
 38 39  2  0
 39 40  1  0
 12  7  1  0
 39 14  1  0
 36 18  1  0
 35 27  1  0
 34 29  1  0
M  END
>  <Compound_ID>  (327) 
CHEMBL3357466

>  <Molecule Name>  (327) 
nan

>  <Molecular Weight>  (327) 
575.09

>  <AlogP>  (327) 
6.46

>  <Smiles>  (327) 
CC(C)S(=O)(=O)c1ccccc1Nc1nc(Nc2cccc(NC(=O)Cc3cc4ccccc4[nH]3)c2)ncc1Cl

>  <Standard Type>  (327) 
IC50

>  <Standard Relation>  (327) 
'='

>  <Standard Units>  (327) 
nM

>  <Standard Value>  (327) 
95.3

>  <Assay ChEMBL ID>  (327) 
CHEMBL3364272

>  <Assay Description>  (327) 
Inhibition of ALK (unknown origin) after 60 mins by ELISA

>  <BAO Format ID>  (327) 
BAO_0000357

>  <BAO Label>  (327) 
single protein format

>  <Assay Organism>  (327) 
Homo sapiens

>  <Target ChEMBL ID>  (327) 
CHEMBL4247

>  <Target Name>  (327) 
ALK tyrosine kinase receptor

>  <Target Organism>  (327) 
Homo sapiens

>  <Target Type>  (327) 
SINGLE PROTEIN

>  <Document ChEMBL ID>  (327) 
CHEMBL3351234

>  <Source Description>  (327) 
Scientific Literature

>  <Document Journal>  (327) 
J Med Chem

>  <Document Year>  (327) 
2015.0

>  <Active>  (327) 
1.0

>  <bits>  (327) 
<rdkit.DataStructs.cDataStructs.ExplicitBitVect object at 0x000002422F18A9D0>

>  <Group>  (327) 
G2

$$$$

     RDKit          2D

 37 42  0  0  0  0  0  0  0  0999 V2000
    4.6700   -7.1864    0.0000 C   0  0  0  0  0  0  0  0  0  0  0  0
    4.4095   -5.7092    0.0000 C   0  0  0  0  0  0  0  0  0  0  0  0
    5.5586   -4.7450    0.0000 C   0  0  0  0  0  0  0  0  0  0  0  0
    3.0000   -5.1962    0.0000 C   0  0  0  0  0  0  0  0  0  0  0  0
    2.7395   -6.6734    0.0000 N   0  0  0  0  0  0  0  0  0  0  0  0
    1.3300   -7.1864    0.0000 C   0  0  0  0  0  0  0  0  0  0  0  0
    1.0695   -8.6636    0.0000 C   0  0  0  0  0  0  0  0  0  0  0  0
    2.2186   -9.6278    0.0000 O   0  0  0  0  0  0  0  0  0  0  0  0
    3.6281   -9.1148    0.0000 C   0  0  0  0  0  0  0  0  0  0  0  0
    3.8886   -7.6375    0.0000 C   0  0  0  0  0  0  0  0  0  0  0  0
    3.7500   -3.8971    0.0000 C   0  0  0  0  0  0  0  0  0  0  0  0
    3.0000   -2.5981    0.0000 C   0  0  0  0  0  0  0  0  0  0  0  0
    1.5000   -2.5981    0.0000 N   0  0  0  0  0  0  0  0  0  0  0  0
    0.7500   -1.2990    0.0000 C   0  0  0  0  0  0  0  0  0  0  0  0
    1.5000    0.0000    0.0000 C   0  0  0  0  0  0  0  0  0  0  0  0
    0.7500    1.2990    0.0000 C   0  0  0  0  0  0  0  0  0  0  0  0
   -0.7500    1.2990    0.0000 C   0  0  0  0  0  0  0  0  0  0  0  0
   -1.5000    0.0000    0.0000 C   0  0  0  0  0  0  0  0  0  0  0  0
   -0.7500   -1.2990    0.0000 N   0  0  0  0  0  0  0  0  0  0  0  0
   -1.5000    2.5981    0.0000 C   0  0  0  0  0  0  0  0  0  0  0  0
   -3.0000    2.5981    0.0000 O   0  0  0  0  0  0  0  0  0  0  0  0
   -0.7500    3.8971    0.0000 C   0  0  0  0  0  0  0  0  0  0  0  0
    0.7500    3.8971    0.0000 C   0  0  0  0  0  0  0  0  0  0  0  0
    1.2135    5.3237    0.0000 N   0  0  0  0  0  0  0  0  0  0  0  0
   -0.0000    6.2054    0.0000 C   0  0  0  0  0  0  0  0  0  0  0  0
   -0.1568    7.6972    0.0000 C   0  0  0  0  0  0  0  0  0  0  0  0
   -1.5271    8.3073    0.0000 C   0  0  0  0  0  0  0  0  0  0  0  0
   -1.6839    9.7990    0.0000 C   0  0  0  0  0  0  0  0  0  0  0  0
   -1.8407   11.2908    0.0000 N   0  0  0  0  0  0  0  0  0  0  0  0
   -2.7406    7.4256    0.0000 C   0  0  0  0  0  0  0  0  0  0  0  0
   -2.5838    5.9338    0.0000 C   0  0  0  0  0  0  0  0  0  0  0  0
   -1.2135    5.3237    0.0000 C   0  0  0  0  0  0  0  0  0  0  0  0
    1.5000    2.5981    0.0000 C   0  0  0  0  0  0  0  0  0  0  0  0
    2.6491    1.6339    0.0000 C   0  0  0  0  0  0  0  0  0  0  0  0
    2.6491    3.5623    0.0000 C   0  0  0  0  0  0  0  0  0  0  0  0
    0.7500   -3.8971    0.0000 C   0  0  0  0  0  0  0  0  0  0  0  0
    1.5000   -5.1962    0.0000 C   0  0  0  0  0  0  0  0  0  0  0  0
  1  2  1  0
  2  3  1  0
  2  4  1  0
  4  5  1  0
  5  6  1  0
  6  7  1  0
  7  8  1  0
  8  9  1  0
  9 10  1  0
  4 11  1  0
 11 12  1  0
 12 13  1  0
 13 14  1  0
 14 15  2  0
 15 16  1  0
 16 17  2  0
 17 18  1  0
 18 19  2  0
 17 20  1  0
 20 21  2  0
 20 22  1  0
 22 23  2  0
 23 24  1  0
 24 25  1  0
 25 26  2  0
 26 27  1  0
 27 28  1  0
 28 29  3  0
 27 30  2  0
 30 31  1  0
 31 32  2  0
 23 33  1  0
 33 34  1  0
 33 35  1  0
 13 36  1  0
 36 37  1  0
 37  4  1  0
 10  5  1  0
 19 14  1  0
 32 22  1  0
 33 16  1  0
 32 25  1  0
M  END
>  <Compound_ID>  (328) 
CHEMBL3916733

>  <Molecule Name>  (328) 
nan

>  <Molecular Weight>  (328) 
497.64

>  <AlogP>  (328) 
4.63

>  <Smiles>  (328) 
CC(C)C1(N2CCOCC2)CCN(c2cc3c(cn2)C(=O)c2c([nH]c4cc(C#N)ccc24)C3(C)C)CC1

>  <Standard Type>  (328) 
IC50

>  <Standard Relation>  (328) 
'='

>  <Standard Units>  (328) 
nM

>  <Standard Value>  (328) 
9.37

>  <Assay ChEMBL ID>  (328) 
CHEMBL3887074

>  <Assay Description>  (328) 
Inhibition Assay: ALK-inhibiting activity was measured by following an activity of inhibiting phosphorylation by biotinylated peptide (EGPWLEEEEEAYGWMDF). For the detection of phosphorylation of the biotinylated peptide, time-resolved fluorescence measurement was performed using an anti-phosphorylated tyrosine antibody labeled with europium cryptate and streptavidin conjugated to XL665, i.e., an allophycocyanin derivative.

>  <BAO Format ID>  (328) 
BAO_0000357

>  <BAO Label>  (328) 
single protein format

>  <Assay Organism>  (328) 
Homo sapiens

>  <Target ChEMBL ID>  (328) 
CHEMBL4247

>  <Target Name>  (328) 
ALK tyrosine kinase receptor

>  <Target Organism>  (328) 
Homo sapiens

>  <Target Type>  (328) 
SINGLE PROTEIN

>  <Document ChEMBL ID>  (328) 
CHEMBL3886150

>  <Source Description>  (328) 
BindingDB Database

>  <Document Journal>  (328) 
nan

>  <Document Year>  (328) 
2015.0

>  <Active>  (328) 
1.0

>  <bits>  (328) 
<rdkit.DataStructs.cDataStructs.ExplicitBitVect object at 0x000002422F18AB90>

>  <Group>  (328) 
G2

$$$$

     RDKit          2D

 42 47  0  0  0  0  0  0  0  0999 V2000
  -12.0193   -6.1147    0.0000 C   0  0  0  0  0  0  0  0  0  0  0  0
  -10.8058   -6.9964    0.0000 C   0  0  0  0  0  0  0  0  0  0  0  0
   -9.4354   -6.3863    0.0000 N   0  0  0  0  0  0  0  0  0  0  0  0
   -9.2786   -4.8945    0.0000 C   0  0  0  0  0  0  0  0  0  0  0  0
  -10.4922   -4.0128    0.0000 C   0  0  0  0  0  0  0  0  0  0  0  0
   -8.2219   -7.2679    0.0000 C   0  0  0  0  0  0  0  0  0  0  0  0
   -6.8516   -6.6578    0.0000 C   0  0  0  0  0  0  0  0  0  0  0  0
   -5.6381   -7.5395    0.0000 O   0  0  0  0  0  0  0  0  0  0  0  0
   -4.2677   -6.9294    0.0000 C   0  0  0  0  0  0  0  0  0  0  0  0
   -4.1110   -5.4376    0.0000 C   0  0  0  0  0  0  0  0  0  0  0  0
   -2.7406   -4.8275    0.0000 C   0  0  0  0  0  0  0  0  0  0  0  0
   -1.5271   -5.7092    0.0000 C   0  0  0  0  0  0  0  0  0  0  0  0
   -1.6839   -7.2010    0.0000 C   0  0  0  0  0  0  0  0  0  0  0  0
   -3.0542   -7.8111    0.0000 C   0  0  0  0  0  0  0  0  0  0  0  0
   -3.2110   -9.3029    0.0000 N   0  0  0  0  0  0  0  0  0  0  0  0
   -4.5813   -9.9130    0.0000 C   0  0  0  0  0  0  0  0  0  0  0  0
   -4.7381  -11.4047    0.0000 C   0  0  0  0  0  0  0  0  0  0  0  0
   -3.5246  -12.2864    0.0000 C   0  0  0  0  0  0  0  0  0  0  0  0
   -3.6814  -13.7782    0.0000 N   0  0  0  0  0  0  0  0  0  0  0  0
   -5.0517  -14.3883    0.0000 C   0  0  0  0  0  0  0  0  0  0  0  0
   -5.2085  -15.8801    0.0000 C   0  0  0  0  0  0  0  0  0  0  0  0
   -3.9950  -16.7618    0.0000 O   0  0  0  0  0  0  0  0  0  0  0  0
   -2.6247  -16.1517    0.0000 C   0  0  0  0  0  0  0  0  0  0  0  0
   -2.4679  -14.6599    0.0000 C   0  0  0  0  0  0  0  0  0  0  0  0
   -2.1543  -11.6763    0.0000 C   0  0  0  0  0  0  0  0  0  0  0  0
   -1.9975  -10.1845    0.0000 C   0  0  0  0  0  0  0  0  0  0  0  0
   -0.1568   -5.0991    0.0000 C   0  0  0  0  0  0  0  0  0  0  0  0
    1.3396   -4.9944    0.0000 C   0  0  0  0  0  0  0  0  0  0  0  0
    0.2061   -6.5545    0.0000 C   0  0  0  0  0  0  0  0  0  0  0  0
   -0.0000   -3.6073    0.0000 C   0  0  0  0  0  0  0  0  0  0  0  0
    1.2135   -2.7256    0.0000 N   0  0  0  0  0  0  0  0  0  0  0  0
    0.7500   -1.2990    0.0000 C   0  0  0  0  0  0  0  0  0  0  0  0
    1.5000    0.0000    0.0000 C   0  0  0  0  0  0  0  0  0  0  0  0
    0.7500    1.2990    0.0000 C   0  0  0  0  0  0  0  0  0  0  0  0
    1.5000    2.5981    0.0000 C   0  0  0  0  0  0  0  0  0  0  0  0
    2.2500    3.8971    0.0000 N   0  0  0  0  0  0  0  0  0  0  0  0
   -0.7500    1.2990    0.0000 C   0  0  0  0  0  0  0  0  0  0  0  0
   -1.5000    0.0000    0.0000 C   0  0  0  0  0  0  0  0  0  0  0  0
   -0.7500   -1.2990    0.0000 C   0  0  0  0  0  0  0  0  0  0  0  0
   -1.2135   -2.7256    0.0000 C   0  0  0  0  0  0  0  0  0  0  0  0
   -2.5838   -3.3357    0.0000 C   0  0  0  0  0  0  0  0  0  0  0  0
   -3.7974   -2.4540    0.0000 O   0  0  0  0  0  0  0  0  0  0  0  0
  1  2  1  0
  2  3  1  0
  3  4  1  0
  4  5  1  0
  3  6  1  0
  6  7  1  0
  7  8  1  0
  8  9  1  0
  9 10  2  0
 10 11  1  0
 11 12  2  0
 12 13  1  0
 13 14  2  0
 14 15  1  0
 15 16  1  0
 16 17  1  0
 17 18  1  0
 18 19  1  0
 19 20  1  0
 20 21  1  0
 21 22  1  0
 22 23  1  0
 23 24  1  0
 18 25  1  0
 25 26  1  0
 12 27  1  0
 27 28  1  0
 27 29  1  0
 27 30  1  0
 30 31  1  0
 31 32  1  0
 32 33  2  0
 33 34  1  0
 34 35  1  0
 35 36  3  0
 34 37  2  0
 37 38  1  0
 38 39  2  0
 39 40  1  0
 40 41  1  0
 41 42  2  0
 14  9  1  0
 26 15  1  0
 40 30  2  0
 41 11  1  0
 24 19  1  0
 39 32  1  0
M  END
>  <Compound_ID>  (329) 
CHEMBL3913523

>  <Molecule Name>  (329) 
nan

>  <Molecular Weight>  (329) 
569.75

>  <AlogP>  (329) 
4.93

>  <Smiles>  (329) 
CCN(CC)CCOc1cc2c(cc1N1CCC(N3CCOCC3)CC1)C(C)(C)c1[nH]c3cc(C#N)ccc3c1C2=O

>  <Standard Type>  (329) 
IC50

>  <Standard Relation>  (329) 
'='

>  <Standard Units>  (329) 
nM

>  <Standard Value>  (329) 
11.8

>  <Assay ChEMBL ID>  (329) 
CHEMBL3887074

>  <Assay Description>  (329) 
Inhibition Assay: ALK-inhibiting activity was measured by following an activity of inhibiting phosphorylation by biotinylated peptide (EGPWLEEEEEAYGWMDF). For the detection of phosphorylation of the biotinylated peptide, time-resolved fluorescence measurement was performed using an anti-phosphorylated tyrosine antibody labeled with europium cryptate and streptavidin conjugated to XL665, i.e., an allophycocyanin derivative.

>  <BAO Format ID>  (329) 
BAO_0000357

>  <BAO Label>  (329) 
single protein format

>  <Assay Organism>  (329) 
Homo sapiens

>  <Target ChEMBL ID>  (329) 
CHEMBL4247

>  <Target Name>  (329) 
ALK tyrosine kinase receptor

>  <Target Organism>  (329) 
Homo sapiens

>  <Target Type>  (329) 
SINGLE PROTEIN

>  <Document ChEMBL ID>  (329) 
CHEMBL3886150

>  <Source Description>  (329) 
BindingDB Database

>  <Document Journal>  (329) 
nan

>  <Document Year>  (329) 
2015.0

>  <Active>  (329) 
1.0

>  <bits>  (329) 
<rdkit.DataStructs.cDataStructs.ExplicitBitVect object at 0x000002422F18A180>

>  <Group>  (329) 
G2

$$$$

     RDKit          2D

 34 39  0  0  0  0  0  0  0  0999 V2000
   -6.8516   -6.6578    0.0000 C   0  0  0  0  0  0  0  0  0  0  0  0
   -5.6381   -7.5395    0.0000 C   0  0  0  0  0  0  0  0  0  0  0  0
   -4.2677   -6.9294    0.0000 C   0  0  0  0  0  0  0  0  0  0  0  0
   -4.1110   -5.4376    0.0000 C   0  0  0  0  0  0  0  0  0  0  0  0
   -2.7406   -4.8275    0.0000 C   0  0  0  0  0  0  0  0  0  0  0  0
   -1.5271   -5.7092    0.0000 C   0  0  0  0  0  0  0  0  0  0  0  0
   -1.6839   -7.2010    0.0000 C   0  0  0  0  0  0  0  0  0  0  0  0
   -3.0542   -7.8111    0.0000 C   0  0  0  0  0  0  0  0  0  0  0  0
   -3.2110   -9.3029    0.0000 N   0  0  0  0  0  0  0  0  0  0  0  0
   -4.5813   -9.9130    0.0000 C   0  0  0  0  0  0  0  0  0  0  0  0
   -4.7381  -11.4047    0.0000 C   0  0  0  0  0  0  0  0  0  0  0  0
   -3.5246  -12.2864    0.0000 C   0  0  0  0  0  0  0  0  0  0  0  0
   -4.6036  -13.3284    0.0000 O   0  0  0  0  0  0  0  0  0  0  0  0
   -2.6858  -13.5300    0.0000 C   0  0  0  0  0  0  0  0  0  0  0  0
   -1.3376  -14.1875    0.0000 C   0  0  0  0  0  0  0  0  0  0  0  0
   -2.5812  -15.0263    0.0000 C   0  0  0  0  0  0  0  0  0  0  0  0
   -2.1543  -11.6763    0.0000 C   0  0  0  0  0  0  0  0  0  0  0  0
   -1.9975  -10.1845    0.0000 C   0  0  0  0  0  0  0  0  0  0  0  0
   -0.1568   -5.0991    0.0000 C   0  0  0  0  0  0  0  0  0  0  0  0
    1.3396   -4.9944    0.0000 C   0  0  0  0  0  0  0  0  0  0  0  0
    0.2061   -6.5545    0.0000 C   0  0  0  0  0  0  0  0  0  0  0  0
   -0.0000   -3.6073    0.0000 C   0  0  0  0  0  0  0  0  0  0  0  0
    1.2135   -2.7256    0.0000 N   0  0  0  0  0  0  0  0  0  0  0  0
    0.7500   -1.2990    0.0000 C   0  0  0  0  0  0  0  0  0  0  0  0
    1.5000    0.0000    0.0000 C   0  0  0  0  0  0  0  0  0  0  0  0
    0.7500    1.2990    0.0000 C   0  0  0  0  0  0  0  0  0  0  0  0
    1.5000    2.5981    0.0000 C   0  0  0  0  0  0  0  0  0  0  0  0
    2.2500    3.8971    0.0000 N   0  0  0  0  0  0  0  0  0  0  0  0
   -0.7500    1.2990    0.0000 C   0  0  0  0  0  0  0  0  0  0  0  0
   -1.5000    0.0000    0.0000 C   0  0  0  0  0  0  0  0  0  0  0  0
   -0.7500   -1.2990    0.0000 C   0  0  0  0  0  0  0  0  0  0  0  0
   -1.2135   -2.7256    0.0000 C   0  0  0  0  0  0  0  0  0  0  0  0
   -2.5838   -3.3357    0.0000 C   0  0  0  0  0  0  0  0  0  0  0  0
   -3.7974   -2.4540    0.0000 O   0  0  0  0  0  0  0  0  0  0  0  0
  1  2  1  0
  2  3  1  0
  3  4  2  0
  4  5  1  0
  5  6  2  0
  6  7  1  0
  7  8  2  0
  8  9  1  0
  9 10  1  0
 10 11  1  0
 11 12  1  0
 12 13  1  0
 12 14  1  0
 14 15  1  0
 15 16  1  0
 12 17  1  0
 17 18  1  0
  6 19  1  0
 19 20  1  0
 19 21  1  0
 19 22  1  0
 22 23  1  0
 23 24  1  0
 24 25  2  0
 25 26  1  0
 26 27  1  0
 27 28  3  0
 26 29  2  0
 29 30  1  0
 30 31  2  0
 31 32  1  0
 32 33  1  0
 33 34  2  0
  8  3  1  0
 18  9  1  0
 32 22  2  0
 33  5  1  0
 16 14  1  0
 31 24  1  0
M  END
>  <Compound_ID>  (330) 
CHEMBL3930736

>  <Molecule Name>  (330) 
nan

>  <Molecular Weight>  (330) 
453.59

>  <AlogP>  (330) 
5.21

>  <Smiles>  (330) 
CCc1cc2c(cc1N1CCC(O)(C3CC3)CC1)C(C)(C)c1[nH]c3cc(C#N)ccc3c1C2=O

>  <Standard Type>  (330) 
IC50

>  <Standard Relation>  (330) 
'='

>  <Standard Units>  (330) 
nM

>  <Standard Value>  (330) 
14.2

>  <Assay ChEMBL ID>  (330) 
CHEMBL3887074

>  <Assay Description>  (330) 
Inhibition Assay: ALK-inhibiting activity was measured by following an activity of inhibiting phosphorylation by biotinylated peptide (EGPWLEEEEEAYGWMDF). For the detection of phosphorylation of the biotinylated peptide, time-resolved fluorescence measurement was performed using an anti-phosphorylated tyrosine antibody labeled with europium cryptate and streptavidin conjugated to XL665, i.e., an allophycocyanin derivative.

>  <BAO Format ID>  (330) 
BAO_0000357

>  <BAO Label>  (330) 
single protein format

>  <Assay Organism>  (330) 
Homo sapiens

>  <Target ChEMBL ID>  (330) 
CHEMBL4247

>  <Target Name>  (330) 
ALK tyrosine kinase receptor

>  <Target Organism>  (330) 
Homo sapiens

>  <Target Type>  (330) 
SINGLE PROTEIN

>  <Document ChEMBL ID>  (330) 
CHEMBL3886150

>  <Source Description>  (330) 
BindingDB Database

>  <Document Journal>  (330) 
nan

>  <Document Year>  (330) 
2015.0

>  <Active>  (330) 
1.0

>  <bits>  (330) 
<rdkit.DataStructs.cDataStructs.ExplicitBitVect object at 0x000002422F189770>

>  <Group>  (330) 
G2

$$$$

     RDKit          2D

 25 28  0  0  0  0  0  0  0  0999 V2000
   -5.2802   -7.7620    0.0000 C   0  0  0  0  0  0  0  0  0  0  0  0
   -4.1655   -6.7583    0.0000 C   0  0  0  0  0  0  0  0  0  0  0  0
   -2.6983   -7.0701    0.0000 C   0  0  0  0  0  0  0  0  0  0  0  0
   -1.9483   -5.7711    0.0000 C   0  0  0  0  0  0  0  0  0  0  0  0
   -0.4565   -5.6143    0.0000 C   0  0  0  0  0  0  0  0  0  0  0  0
    0.4252   -6.8278    0.0000 C   0  0  0  0  0  0  0  0  0  0  0  0
    1.9170   -6.6710    0.0000 C   0  0  0  0  0  0  0  0  0  0  0  0
    2.5271   -5.3007    0.0000 C   0  0  0  0  0  0  0  0  0  0  0  0
    4.0188   -5.1439    0.0000 N   0  0  0  0  0  0  0  0  0  0  0  0
    1.6454   -4.0872    0.0000 C   0  0  0  0  0  0  0  0  0  0  0  0
    0.1536   -4.2440    0.0000 C   0  0  0  0  0  0  0  0  0  0  0  0
   -2.9520   -4.6564    0.0000 C   0  0  0  0  0  0  0  0  0  0  0  0
   -2.6401   -3.1891    0.0000 C   0  0  0  0  0  0  0  0  0  0  0  0
   -3.7548   -2.1855    0.0000 C   0  0  0  0  0  0  0  0  0  0  0  0
   -5.2220   -2.4973    0.0000 C   0  0  0  0  0  0  0  0  0  0  0  0
   -5.8322   -3.8676    0.0000 O   0  0  0  0  0  0  0  0  0  0  0  0
   -5.9720   -1.1983    0.0000 N   0  0  0  0  0  0  0  0  0  0  0  0
   -4.9684   -0.0836    0.0000 C   0  0  0  0  0  0  0  0  0  0  0  0
   -5.1251    1.4082    0.0000 C   0  0  0  0  0  0  0  0  0  0  0  0
   -3.9116    2.2899    0.0000 C   0  0  0  0  0  0  0  0  0  0  0  0
   -2.5413    1.6798    0.0000 C   0  0  0  0  0  0  0  0  0  0  0  0
   -1.3278    2.5615    0.0000 N   0  0  0  0  0  0  0  0  0  0  0  0
   -2.3845    0.1880    0.0000 C   0  0  0  0  0  0  0  0  0  0  0  0
   -3.5980   -0.6937    0.0000 C   0  0  0  0  0  0  0  0  0  0  0  0
   -4.3223   -5.2665    0.0000 N   0  0  0  0  0  0  0  0  0  0  0  0
  1  2  1  0
  2  3  2  0
  3  4  1  0
  4  5  1  0
  5  6  2  0
  6  7  1  0
  7  8  2  0
  8  9  1  0
  8 10  1  0
 10 11  2  0
  4 12  2  0
 12 13  1  0
 13 14  2  0
 14 15  1  0
 15 16  2  0
 15 17  1  0
 17 18  1  0
 18 19  2  0
 19 20  1  0
 20 21  2  0
 21 22  1  0
 21 23  1  0
 23 24  2  0
 12 25  1  0
 25  2  1  0
 11  5  1  0
 24 14  1  0
 24 18  1  0
M  END
>  <Compound_ID>  (331) 
CHEMBL1778721

>  <Molecule Name>  (331) 
nan

>  <Molecular Weight>  (331) 
330.39

>  <AlogP>  (331) 
3.65

>  <Smiles>  (331) 
Cc1cc(-c2ccc(N)cc2)c(/C=C2\C(=O)Nc3ccc(N)cc32)[nH]1

>  <Standard Type>  (331) 
IC50

>  <Standard Relation>  (331) 
'='

>  <Standard Units>  (331) 
nM

>  <Standard Value>  (331) 
68.3

>  <Assay ChEMBL ID>  (331) 
CHEMBL1781025

>  <Assay Description>  (331) 
Inhibition of ALK using FL-Peptide 13, 5-FAM-KKSRGDYMTMQIG-CONH2 substrate after 60 mins by mobility shift assay

>  <BAO Format ID>  (331) 
BAO_0000357

>  <BAO Label>  (331) 
single protein format

>  <Assay Organism>  (331) 
None

>  <Target ChEMBL ID>  (331) 
CHEMBL4247

>  <Target Name>  (331) 
ALK tyrosine kinase receptor

>  <Target Organism>  (331) 
Homo sapiens

>  <Target Type>  (331) 
SINGLE PROTEIN

>  <Document ChEMBL ID>  (331) 
CHEMBL1777751

>  <Source Description>  (331) 
Scientific Literature

>  <Document Journal>  (331) 
Bioorg Med Chem

>  <Document Year>  (331) 
2011.0

>  <Active>  (331) 
1.0

>  <bits>  (331) 
<rdkit.DataStructs.cDataStructs.ExplicitBitVect object at 0x000002422F1893F0>

>  <Group>  (331) 
G2

$$$$

     RDKit          2D

 34 37  0  0  0  0  0  0  0  0999 V2000
   -3.0000   -5.1962    0.0000 C   0  0  0  0  0  0  0  0  0  0  0  0
   -1.5000   -5.1962    0.0000 O   0  0  0  0  0  0  0  0  0  0  0  0
   -0.7500   -3.8971    0.0000 C   0  0  0  0  0  0  0  0  0  0  0  0
   -1.5000   -2.5981    0.0000 C   0  0  0  0  0  0  0  0  0  0  0  0
   -0.7500   -1.2990    0.0000 C   0  0  0  0  0  0  0  0  0  0  0  0
    0.7500   -1.2990    0.0000 C   0  0  0  0  0  0  0  0  0  0  0  0
    1.5000   -2.5981    0.0000 C   0  0  0  0  0  0  0  0  0  0  0  0
    0.7500   -3.8971    0.0000 C   0  0  0  0  0  0  0  0  0  0  0  0
    1.5000   -5.1962    0.0000 N   0  0  0  0  0  0  0  0  0  0  0  0
    0.7500   -6.4952    0.0000 C   0  0  0  0  0  0  0  0  0  0  0  0
   -0.7500   -6.4952    0.0000 N   0  0  0  0  0  0  0  0  0  0  0  0
   -1.5000   -7.7942    0.0000 C   0  0  0  0  0  0  0  0  0  0  0  0
   -0.7500   -9.0933    0.0000 C   0  0  0  0  0  0  0  0  0  0  0  0
   -1.5000  -10.3923    0.0000 Cl  0  0  0  0  0  0  0  0  0  0  0  0
    0.7500   -9.0933    0.0000 C   0  0  0  0  0  0  0  0  0  0  0  0
    1.5000  -10.3923    0.0000 N   0  0  0  0  0  0  0  0  0  0  0  0
    3.0000  -10.3923    0.0000 C   0  0  0  0  0  0  0  0  0  0  0  0
    3.7500   -9.0933    0.0000 C   0  0  0  0  0  0  0  0  0  0  0  0
    5.2500   -9.0933    0.0000 C   0  0  0  0  0  0  0  0  0  0  0  0
    6.0000  -10.3923    0.0000 C   0  0  0  0  0  0  0  0  0  0  0  0
    5.2500  -11.6913    0.0000 C   0  0  0  0  0  0  0  0  0  0  0  0
    3.7500  -11.6913    0.0000 C   0  0  0  0  0  0  0  0  0  0  0  0
    3.0000  -12.9904    0.0000 S   0  0  0  0  0  0  0  0  0  0  0  0
    1.7010  -12.2404    0.0000 O   0  0  0  0  0  0  0  0  0  0  0  0
    4.2990  -13.7404    0.0000 O   0  0  0  0  0  0  0  0  0  0  0  0
    2.2500  -14.2894    0.0000 C   0  0  0  0  0  0  0  0  0  0  0  0
    3.0000  -15.5885    0.0000 C   0  0  0  0  0  0  0  0  0  0  0  0
    0.7500  -14.2894    0.0000 C   0  0  0  0  0  0  0  0  0  0  0  0
    1.5000   -7.7942    0.0000 N   0  0  0  0  0  0  0  0  0  0  0  0
    1.5000    0.0000    0.0000 C   0  0  0  0  0  0  0  0  0  0  0  0
    0.7500    1.2990    0.0000 N   0  0  0  0  0  0  0  0  0  0  0  0
    1.5000    2.5981    0.0000 C   0  0  0  0  0  0  0  0  0  0  0  0
   -0.7500    1.2990    0.0000 C   0  0  0  0  0  0  0  0  0  0  0  0
   -1.5000    0.0000    0.0000 C   0  0  0  0  0  0  0  0  0  0  0  0
  1  2  1  0
  2  3  1  0
  3  4  2  0
  4  5  1  0
  5  6  2  0
  6  7  1  0
  7  8  2  0
  8  9  1  0
  9 10  1  0
 10 11  2  0
 11 12  1  0
 12 13  2  0
 13 14  1  0
 13 15  1  0
 15 16  1  0
 16 17  1  0
 17 18  2  0
 18 19  1  0
 19 20  2  0
 20 21  1  0
 21 22  2  0
 22 23  1  0
 23 24  2  0
 23 25  2  0
 23 26  1  0
 26 27  1  0
 26 28  1  0
 15 29  2  0
  6 30  1  0
 30 31  1  0
 31 32  1  0
 31 33  1  0
 33 34  1  0
  8  3  1  0
 29 10  1  0
 34  5  1  0
 22 17  1  0
M  END
>  <Compound_ID>  (332) 
CHEMBL4754657

>  <Molecule Name>  (332) 
nan

>  <Molecular Weight>  (332) 
502.04

>  <AlogP>  (332) 
4.80

>  <Smiles>  (332) 
COc1cc2c(cc1Nc1ncc(Cl)c(Nc3ccccc3S(=O)(=O)C(C)C)n1)CN(C)CC2

>  <Standard Type>  (332) 
IC50

>  <Standard Relation>  (332) 
'='

>  <Standard Units>  (332) 
nM

>  <Standard Value>  (332) 
3.0

>  <Assay ChEMBL ID>  (332) 
CHEMBL4716187

>  <Assay Description>  (332) 
Inhibition of ALK (unknown origin) using peptide substrate incubated for 30 mins in presence of ATP by fluorescence assay

>  <BAO Format ID>  (332) 
BAO_0000357

>  <BAO Label>  (332) 
single protein format

>  <Assay Organism>  (332) 
Homo sapiens

>  <Target ChEMBL ID>  (332) 
CHEMBL4247

>  <Target Name>  (332) 
ALK tyrosine kinase receptor

>  <Target Organism>  (332) 
Homo sapiens

>  <Target Type>  (332) 
SINGLE PROTEIN

>  <Document ChEMBL ID>  (332) 
CHEMBL4715694

>  <Source Description>  (332) 
Scientific Literature

>  <Document Journal>  (332) 
Bioorg Med Chem

>  <Document Year>  (332) 
2016.0

>  <Active>  (332) 
1.0

>  <bits>  (332) 
<rdkit.DataStructs.cDataStructs.ExplicitBitVect object at 0x000002422F188DD0>

>  <Group>  (332) 
G2

$$$$

     RDKit          2D

 36 40  0  0  0  0  0  0  0  0999 V2000
   -3.9950  -16.7618    0.0000 C   0  0  0  0  0  0  0  0  0  0  0  0
   -3.8382  -15.2700    0.0000 C   0  0  0  0  0  0  0  0  0  0  0  0
   -3.6814  -13.7782    0.0000 C   0  0  0  0  0  0  0  0  0  0  0  0
   -5.1732  -13.6214    0.0000 C   0  0  0  0  0  0  0  0  0  0  0  0
   -2.1896  -13.9350    0.0000 C   0  0  0  0  0  0  0  0  0  0  0  0
   -3.5246  -12.2864    0.0000 N   0  0  0  0  0  0  0  0  0  0  0  0
   -4.7381  -11.4047    0.0000 C   0  0  0  0  0  0  0  0  0  0  0  0
   -4.5813   -9.9130    0.0000 C   0  0  0  0  0  0  0  0  0  0  0  0
   -3.2110   -9.3029    0.0000 N   0  0  0  0  0  0  0  0  0  0  0  0
   -3.0542   -7.8111    0.0000 C   0  0  0  0  0  0  0  0  0  0  0  0
   -1.6839   -7.2010    0.0000 C   0  0  0  0  0  0  0  0  0  0  0  0
   -1.5271   -5.7092    0.0000 C   0  0  0  0  0  0  0  0  0  0  0  0
   -2.7406   -4.8275    0.0000 C   0  0  0  0  0  0  0  0  0  0  0  0
   -4.1110   -5.4376    0.0000 C   0  0  0  0  0  0  0  0  0  0  0  0
   -4.2677   -6.9294    0.0000 C   0  0  0  0  0  0  0  0  0  0  0  0
   -5.6381   -7.5395    0.0000 C   0  0  0  0  0  0  0  0  0  0  0  0
   -6.8516   -6.6578    0.0000 C   0  0  0  0  0  0  0  0  0  0  0  0
   -5.7949   -9.0313    0.0000 O   0  0  0  0  0  0  0  0  0  0  0  0
   -2.5838   -3.3357    0.0000 C   0  0  0  0  0  0  0  0  0  0  0  0
   -3.7974   -2.4540    0.0000 O   0  0  0  0  0  0  0  0  0  0  0  0
   -1.2135   -2.7256    0.0000 C   0  0  0  0  0  0  0  0  0  0  0  0
   -0.0000   -3.6073    0.0000 C   0  0  0  0  0  0  0  0  0  0  0  0
    1.2135   -2.7256    0.0000 N   0  0  0  0  0  0  0  0  0  0  0  0
    0.7500   -1.2990    0.0000 C   0  0  0  0  0  0  0  0  0  0  0  0
    1.5000    0.0000    0.0000 C   0  0  0  0  0  0  0  0  0  0  0  0
    0.7500    1.2990    0.0000 C   0  0  0  0  0  0  0  0  0  0  0  0
    1.5000    2.5981    0.0000 C   0  0  0  0  0  0  0  0  0  0  0  0
    2.2500    3.8971    0.0000 N   0  0  0  0  0  0  0  0  0  0  0  0
   -0.7500    1.2990    0.0000 C   0  0  0  0  0  0  0  0  0  0  0  0
   -1.5000    0.0000    0.0000 C   0  0  0  0  0  0  0  0  0  0  0  0
   -0.7500   -1.2990    0.0000 C   0  0  0  0  0  0  0  0  0  0  0  0
   -0.1568   -5.0991    0.0000 C   0  0  0  0  0  0  0  0  0  0  0  0
    0.2061   -6.5545    0.0000 C   0  0  0  0  0  0  0  0  0  0  0  0
    1.3396   -4.9944    0.0000 C   0  0  0  0  0  0  0  0  0  0  0  0
   -1.9975  -10.1845    0.0000 C   0  0  0  0  0  0  0  0  0  0  0  0
   -2.1543  -11.6763    0.0000 C   0  0  0  0  0  0  0  0  0  0  0  0
  1  2  3  0
  2  3  1  0
  3  4  1  0
  3  5  1  0
  3  6  1  0
  6  7  1  0
  7  8  1  0
  8  9  1  0
  9 10  1  0
 10 11  2  0
 11 12  1  0
 12 13  2  0
 13 14  1  0
 14 15  2  0
 15 16  1  0
 16 17  1  0
 16 18  2  0
 13 19  1  0
 19 20  2  0
 19 21  1  0
 21 22  2  0
 22 23  1  0
 23 24  1  0
 24 25  2  0
 25 26  1  0
 26 27  1  0
 27 28  3  0
 26 29  2  0
 29 30  1  0
 30 31  2  0
 22 32  1  0
 32 33  1  0
 32 34  1  0
  9 35  1  0
 35 36  1  0
 36  6  1  0
 15 10  1  0
 31 21  1  0
 32 12  1  0
 31 24  1  0
M  END
>  <Compound_ID>  (333) 
CHEMBL3924183

>  <Molecule Name>  (333) 
nan

>  <Molecular Weight>  (333) 
478.6

>  <AlogP>  (333) 
4.65

>  <Smiles>  (333) 
C#CC(C)(C)N1CCN(c2cc3c(cc2C(C)=O)C(=O)c2c([nH]c4cc(C#N)ccc24)C3(C)C)CC1

>  <Standard Type>  (333) 
IC50

>  <Standard Relation>  (333) 
'='

>  <Standard Units>  (333) 
nM

>  <Standard Value>  (333) 
2.622

>  <Assay ChEMBL ID>  (333) 
CHEMBL3887074

>  <Assay Description>  (333) 
Inhibition Assay: ALK-inhibiting activity was measured by following an activity of inhibiting phosphorylation by biotinylated peptide (EGPWLEEEEEAYGWMDF). For the detection of phosphorylation of the biotinylated peptide, time-resolved fluorescence measurement was performed using an anti-phosphorylated tyrosine antibody labeled with europium cryptate and streptavidin conjugated to XL665, i.e., an allophycocyanin derivative.

>  <BAO Format ID>  (333) 
BAO_0000357

>  <BAO Label>  (333) 
single protein format

>  <Assay Organism>  (333) 
Homo sapiens

>  <Target ChEMBL ID>  (333) 
CHEMBL4247

>  <Target Name>  (333) 
ALK tyrosine kinase receptor

>  <Target Organism>  (333) 
Homo sapiens

>  <Target Type>  (333) 
SINGLE PROTEIN

>  <Document ChEMBL ID>  (333) 
CHEMBL3886150

>  <Source Description>  (333) 
BindingDB Database

>  <Document Journal>  (333) 
nan

>  <Document Year>  (333) 
2015.0

>  <Active>  (333) 
1.0

>  <bits>  (333) 
<rdkit.DataStructs.cDataStructs.ExplicitBitVect object at 0x000002422F188A50>

>  <Group>  (333) 
G2

$$$$

     RDKit          2D

 36 40  0  0  0  0  0  0  0  0999 V2000
   -5.0490   -8.3433    0.0000 C   0  0  0  0  0  0  0  0  0  0  0  0
   -3.7500   -9.0933    0.0000 C   0  0  0  0  0  0  0  0  0  0  0  0
   -2.4510   -9.8433    0.0000 C   0  0  0  0  0  0  0  0  0  0  0  0
   -4.5000  -10.3923    0.0000 C   0  0  0  0  0  0  0  0  0  0  0  0
   -3.0000   -7.7942    0.0000 O   0  0  0  0  0  0  0  0  0  0  0  0
   -1.5000   -7.7942    0.0000 C   0  0  0  0  0  0  0  0  0  0  0  0
   -0.7500   -9.0933    0.0000 O   0  0  0  0  0  0  0  0  0  0  0  0
   -0.7500   -6.4952    0.0000 N   0  0  0  0  0  0  0  0  0  0  0  0
   -1.5000   -5.1962    0.0000 C   0  0  0  0  0  0  0  0  0  0  0  0
   -0.7500   -3.8971    0.0000 C   0  0  0  0  0  0  0  0  0  0  0  0
    0.7500   -3.8971    0.0000 C   0  0  0  0  0  0  0  0  0  0  0  0
    1.5000   -2.5981    0.0000 O   0  0  0  0  0  0  0  0  0  0  0  0
    0.7500   -1.2990    0.0000 C   0  0  0  0  0  0  0  0  0  0  0  0
    1.5000    0.0000    0.0000 C   0  0  0  0  0  0  0  0  0  0  0  0
    0.7500    1.2990    0.0000 C   0  0  0  0  0  0  0  0  0  0  0  0
   -0.7500    1.2990    0.0000 C   0  0  0  0  0  0  0  0  0  0  0  0
   -1.5000    0.0000    0.0000 C   0  0  0  0  0  0  0  0  0  0  0  0
   -0.7500   -1.2990    0.0000 C   0  0  0  0  0  0  0  0  0  0  0  0
   -3.0000    0.0000    0.0000 C   0  0  0  0  0  0  0  0  0  0  0  0
   -4.4095   -0.5130    0.0000 C   0  0  0  0  0  0  0  0  0  0  0  0
   -2.7395   -1.4772    0.0000 C   0  0  0  0  0  0  0  0  0  0  0  0
   -3.7500    1.2990    0.0000 C   0  0  0  0  0  0  0  0  0  0  0  0
   -5.2172    1.6109    0.0000 N   0  0  0  0  0  0  0  0  0  0  0  0
   -5.3740    3.1027    0.0000 C   0  0  0  0  0  0  0  0  0  0  0  0
   -6.5875    3.9844    0.0000 C   0  0  0  0  0  0  0  0  0  0  0  0
   -6.4307    5.4761    0.0000 C   0  0  0  0  0  0  0  0  0  0  0  0
   -7.6443    6.3578    0.0000 C   0  0  0  0  0  0  0  0  0  0  0  0
   -8.8578    7.2395    0.0000 N   0  0  0  0  0  0  0  0  0  0  0  0
   -5.0604    6.0863    0.0000 C   0  0  0  0  0  0  0  0  0  0  0  0
   -3.8469    5.2046    0.0000 C   0  0  0  0  0  0  0  0  0  0  0  0
   -4.0037    3.7128    0.0000 C   0  0  0  0  0  0  0  0  0  0  0  0
   -3.0000    2.5981    0.0000 C   0  0  0  0  0  0  0  0  0  0  0  0
   -1.5000    2.5981    0.0000 C   0  0  0  0  0  0  0  0  0  0  0  0
   -0.7500    3.8971    0.0000 O   0  0  0  0  0  0  0  0  0  0  0  0
    1.5000   -5.1962    0.0000 C   0  0  0  0  0  0  0  0  0  0  0  0
    0.7500   -6.4952    0.0000 C   0  0  0  0  0  0  0  0  0  0  0  0
  1  2  1  0
  2  3  1  0
  2  4  1  0
  2  5  1  0
  5  6  1  0
  6  7  2  0
  6  8  1  0
  8  9  1  0
  9 10  1  0
 10 11  1  0
 11 12  1  0
 12 13  1  0
 13 14  2  0
 14 15  1  0
 15 16  2  0
 16 17  1  0
 17 18  2  0
 17 19  1  0
 19 20  1  0
 19 21  1  0
 19 22  1  0
 22 23  1  0
 23 24  1  0
 24 25  2  0
 25 26  1  0
 26 27  1  0
 27 28  3  0
 26 29  2  0
 29 30  1  0
 30 31  2  0
 31 32  1  0
 32 33  1  0
 33 34  2  0
 11 35  1  0
 35 36  1  0
 36  8  1  0
 18 13  1  0
 32 22  2  0
 33 16  1  0
 31 24  1  0
M  END
>  <Compound_ID>  (334) 
CHEMBL3983559

>  <Molecule Name>  (334) 
nan

>  <Molecular Weight>  (334) 
485.58

>  <AlogP>  (334) 
5.69

>  <Smiles>  (334) 
CC(C)(C)OC(=O)N1CCC(Oc2ccc3c(c2)C(C)(C)c2[nH]c4cc(C#N)ccc4c2C3=O)CC1

>  <Standard Type>  (334) 
IC50

>  <Standard Relation>  (334) 
'='

>  <Standard Units>  (334) 
nM

>  <Standard Value>  (334) 
52.71

>  <Assay ChEMBL ID>  (334) 
CHEMBL3887074

>  <Assay Description>  (334) 
Inhibition Assay: ALK-inhibiting activity was measured by following an activity of inhibiting phosphorylation by biotinylated peptide (EGPWLEEEEEAYGWMDF). For the detection of phosphorylation of the biotinylated peptide, time-resolved fluorescence measurement was performed using an anti-phosphorylated tyrosine antibody labeled with europium cryptate and streptavidin conjugated to XL665, i.e., an allophycocyanin derivative.

>  <BAO Format ID>  (334) 
BAO_0000357

>  <BAO Label>  (334) 
single protein format

>  <Assay Organism>  (334) 
Homo sapiens

>  <Target ChEMBL ID>  (334) 
CHEMBL4247

>  <Target Name>  (334) 
ALK tyrosine kinase receptor

>  <Target Organism>  (334) 
Homo sapiens

>  <Target Type>  (334) 
SINGLE PROTEIN

>  <Document ChEMBL ID>  (334) 
CHEMBL3886150

>  <Source Description>  (334) 
BindingDB Database

>  <Document Journal>  (334) 
nan

>  <Document Year>  (334) 
2015.0

>  <Active>  (334) 
1.0

>  <bits>  (334) 
<rdkit.DataStructs.cDataStructs.ExplicitBitVect object at 0x000002422F18AFF0>

>  <Group>  (334) 
G2

$$$$

     RDKit          2D

 45 49  0  0  0  0  0  0  0  0999 V2000
    3.0000    0.0000    0.0000 C   0  0  0  0  0  0  0  0  0  0  0  0
    1.5000    0.0000    0.0000 C   0  0  0  0  0  0  0  0  0  0  0  0
    0.7500   -1.2990    0.0000 C   0  0  0  0  0  0  0  0  0  0  0  0
   -0.7500   -1.2990    0.0000 C   0  0  0  0  0  0  0  0  0  0  0  0
   -1.5000   -2.5981    0.0000 N   0  0  0  0  0  0  0  0  0  0  0  0
   -3.0000   -2.5981    0.0000 C   0  0  0  0  0  0  0  0  0  0  0  0
   -3.7500   -1.2990    0.0000 N   0  0  0  0  0  0  0  0  0  0  0  0
   -5.2500   -1.2990    0.0000 C   0  0  0  0  0  0  0  0  0  0  0  0
   -6.0000   -2.5981    0.0000 C   0  0  0  0  0  0  0  0  0  0  0  0
   -7.5000   -2.5981    0.0000 Cl  0  0  0  0  0  0  0  0  0  0  0  0
   -5.2500   -3.8971    0.0000 C   0  0  0  0  0  0  0  0  0  0  0  0
   -6.0000   -5.1962    0.0000 N   0  0  0  0  0  0  0  0  0  0  0  0
   -5.2500   -6.4952    0.0000 C   0  0  0  0  0  0  0  0  0  0  0  0
   -3.7500   -6.4952    0.0000 C   0  0  0  0  0  0  0  0  0  0  0  0
   -3.0000   -7.7942    0.0000 C   0  0  0  0  0  0  0  0  0  0  0  0
   -3.7500   -9.0933    0.0000 C   0  0  0  0  0  0  0  0  0  0  0  0
   -5.2500   -9.0933    0.0000 C   0  0  0  0  0  0  0  0  0  0  0  0
   -6.0000   -7.7942    0.0000 C   0  0  0  0  0  0  0  0  0  0  0  0
   -7.5000   -7.7942    0.0000 S   0  0  0  0  0  0  0  0  0  0  0  0
   -7.5000   -9.2942    0.0000 O   0  0  0  0  0  0  0  0  0  0  0  0
   -7.5000   -6.2942    0.0000 O   0  0  0  0  0  0  0  0  0  0  0  0
   -9.0000   -7.7942    0.0000 C   0  0  0  0  0  0  0  0  0  0  0  0
   -9.7500   -9.0933    0.0000 F   0  0  0  0  0  0  0  0  0  0  0  0
   -9.7500   -6.4952    0.0000 F   0  0  0  0  0  0  0  0  0  0  0  0
   -3.7500   -3.8971    0.0000 N   0  0  0  0  0  0  0  0  0  0  0  0
   -1.5000    0.0000    0.0000 C   0  0  0  0  0  0  0  0  0  0  0  0
   -3.0000    0.0000    0.0000 O   0  0  0  0  0  0  0  0  0  0  0  0
   -3.7500    1.2990    0.0000 C   0  0  0  0  0  0  0  0  0  0  0  0
   -5.2500    1.2990    0.0000 C   0  0  0  0  0  0  0  0  0  0  0  0
   -3.0000    2.5981    0.0000 C   0  0  0  0  0  0  0  0  0  0  0  0
   -0.7500    1.2990    0.0000 C   0  0  0  0  0  0  0  0  0  0  0  0
    0.7500    1.2990    0.0000 C   0  0  0  0  0  0  0  0  0  0  0  0
    1.5000    2.5981    0.0000 C   0  0  0  0  0  0  0  0  0  0  0  0
    3.0000    2.5981    0.0000 C   0  0  0  0  0  0  0  0  0  0  0  0
    3.7500    3.8971    0.0000 C   0  0  0  0  0  0  0  0  0  0  0  0
    3.0000    5.1962    0.0000 N   0  0  0  0  0  0  0  0  0  0  0  0
    3.7500    6.4952    0.0000 C   0  0  0  0  0  0  0  0  0  0  0  0
    3.0000    7.7942    0.0000 O   0  0  0  0  0  0  0  0  0  0  0  0
    5.2500    6.4952    0.0000 C   0  0  0  0  0  0  0  0  0  0  0  0
    6.1317    7.7087    0.0000 C   0  0  0  0  0  0  0  0  0  0  0  0
    7.5583    7.2452    0.0000 C   0  0  0  0  0  0  0  0  0  0  0  0
    7.5583    5.7452    0.0000 C   0  0  0  0  0  0  0  0  0  0  0  0
    6.1317    5.2817    0.0000 N   0  0  0  0  0  0  0  0  0  0  0  0
    1.5000    5.1962    0.0000 C   0  0  0  0  0  0  0  0  0  0  0  0
    0.7500    3.8971    0.0000 C   0  0  0  0  0  0  0  0  0  0  0  0
  1  2  1  0
  2  3  2  0
  3  4  1  0
  4  5  1  0
  5  6  1  0
  6  7  2  0
  7  8  1  0
  8  9  2  0
  9 10  1  0
  9 11  1  0
 11 12  1  0
 12 13  1  0
 13 14  2  0
 14 15  1  0
 15 16  2  0
 16 17  1  0
 17 18  2  0
 18 19  1  0
 19 20  2  0
 19 21  2  0
 19 22  1  0
 22 23  1  0
 22 24  1  0
 11 25  2  0
  4 26  2  0
 26 27  1  0
 27 28  1  0
 28 29  1  0
 28 30  1  0
 26 31  1  0
 31 32  2  0
 32 33  1  0
 33 34  1  0
 34 35  1  0
 35 36  1  0
 36 37  1  0
 37 38  2  0
 39 37  1  6
 39 40  1  0
 40 41  1  0
 41 42  1  0
 42 43  1  0
 36 44  1  0
 44 45  1  0
 32  2  1  0
 45 33  1  0
 25  6  1  0
 43 39  1  0
 18 13  1  0
M  END
>  <Compound_ID>  (335) 
CHEMBL3651832

>  <Molecule Name>  (335) 
nan

>  <Molecular Weight>  (335) 
663.19

>  <AlogP>  (335) 
6.17

>  <Smiles>  (335) 
Cc1cc(Nc2ncc(Cl)c(Nc3ccccc3S(=O)(=O)C(F)F)n2)c(OC(C)C)cc1C1CCN(C(=O)[C@@H]2CCCN2)CC1

>  <Standard Type>  (335) 
IC50

>  <Standard Relation>  (335) 
'='

>  <Standard Units>  (335) 
nM

>  <Standard Value>  (335) 
34.0

>  <Assay ChEMBL ID>  (335) 
CHEMBL3705165

>  <Assay Description>  (335) 
Enzyme Assay: The inhibition of ALK tyrosine kinase activity may be demonstrated using known methods, for example using the recombinant kinase domain of the ALK in analogy to the VEGF-R kinase assay described in J. Wood et al. Cancer Res. 60, 2178-2189 (2000).

>  <BAO Format ID>  (335) 
BAO_0000357

>  <BAO Label>  (335) 
single protein format

>  <Assay Organism>  (335) 
Homo sapiens

>  <Target ChEMBL ID>  (335) 
CHEMBL4247

>  <Target Name>  (335) 
ALK tyrosine kinase receptor

>  <Target Organism>  (335) 
Homo sapiens

>  <Target Type>  (335) 
SINGLE PROTEIN

>  <Document ChEMBL ID>  (335) 
CHEMBL3638924

>  <Source Description>  (335) 
BindingDB Database

>  <Document Journal>  (335) 
nan

>  <Document Year>  (335) 
2013.0

>  <Active>  (335) 
1.0

>  <bits>  (335) 
<rdkit.DataStructs.cDataStructs.ExplicitBitVect object at 0x000002422F18B680>

>  <Group>  (335) 
G2

$$$$

     RDKit          2D

 32 34  0  0  0  0  0  0  0  0999 V2000
   -0.7500    3.8971    0.0000 C   0  0  0  0  0  0  0  0  0  0  0  0
   -1.5000    2.5981    0.0000 N   0  0  0  0  0  0  0  0  0  0  0  0
   -0.7500    1.2990    0.0000 C   0  0  0  0  0  0  0  0  0  0  0  0
   -1.5000   -0.0000    0.0000 C   0  0  0  0  0  0  0  0  0  0  0  0
   -0.7500   -1.2990    0.0000 C   0  0  0  0  0  0  0  0  0  0  0  0
    0.7500   -1.2990    0.0000 C   0  0  0  0  0  0  0  0  0  0  0  0
    1.5000   -0.0000    0.0000 C   0  0  0  0  0  0  0  0  0  0  0  0
    0.7500    1.2990    0.0000 C   0  0  0  0  0  0  0  0  0  0  0  0
    1.5000    2.5981    0.0000 N   0  0  0  0  0  0  0  0  0  0  0  0
    3.0000    2.5981    0.0000 C   0  0  0  0  0  0  0  0  0  0  0  0
    3.7500    1.2990    0.0000 N   0  0  0  0  0  0  0  0  0  0  0  0
    5.2500    1.2990    0.0000 C   0  0  0  0  0  0  0  0  0  0  0  0
    6.0000   -0.0000    0.0000 N   0  0  0  0  0  0  0  0  0  0  0  0
    7.5000   -0.0000    0.0000 C   0  0  0  0  0  0  0  0  0  0  0  0
    8.2500   -1.2990    0.0000 C   0  0  0  0  0  0  0  0  0  0  0  0
    9.7500   -1.2990    0.0000 C   0  0  0  0  0  0  0  0  0  0  0  0
   10.5000   -0.0000    0.0000 C   0  0  0  0  0  0  0  0  0  0  0  0
    9.7500    1.2990    0.0000 C   0  0  0  0  0  0  0  0  0  0  0  0
   10.5000    2.5981    0.0000 N   0  0  0  0  0  0  0  0  0  0  0  0
   12.0000    2.5981    0.0000 C   0  0  0  0  0  0  0  0  0  0  0  0
   12.7500    1.2990    0.0000 O   0  0  0  0  0  0  0  0  0  0  0  0
   12.7500    3.8971    0.0000 C   0  0  0  0  0  0  0  0  0  0  0  0
   14.2500    3.8971    0.0000 N   0  0  0  0  0  0  0  0  0  0  0  0
    8.2500    1.2990    0.0000 C   0  0  0  0  0  0  0  0  0  0  0  0
    6.0000    2.5981    0.0000 N   0  0  0  0  0  0  0  0  0  0  0  0
    5.2500    3.8971    0.0000 C   0  0  0  0  0  0  0  0  0  0  0  0
    3.7500    3.8971    0.0000 C   0  0  0  0  0  0  0  0  0  0  0  0
    3.0000    5.1962    0.0000 Cl  0  0  0  0  0  0  0  0  0  0  0  0
   -3.0000    2.5981    0.0000 S   0  0  0  0  0  0  0  0  0  0  0  0
   -4.5000    2.5981    0.0000 C   0  0  0  0  0  0  0  0  0  0  0  0
   -3.0000    1.0981    0.0000 O   0  0  0  0  0  0  0  0  0  0  0  0
   -3.0000    4.0981    0.0000 O   0  0  0  0  0  0  0  0  0  0  0  0
  1  2  1  0
  2  3  1  0
  3  4  2  0
  4  5  1  0
  5  6  2  0
  6  7  1  0
  7  8  2  0
  8  9  1  0
  9 10  1  0
 10 11  2  0
 11 12  1  0
 12 13  1  0
 13 14  1  0
 14 15  2  0
 15 16  1  0
 16 17  2  0
 17 18  1  0
 18 19  1  0
 19 20  1  0
 20 21  2  0
 20 22  1  0
 22 23  1  0
 18 24  2  0
 12 25  2  0
 25 26  1  0
 26 27  2  0
 27 28  1  0
  2 29  1  0
 29 30  1  0
 29 31  2  0
 29 32  2  0
  8  3  1  0
 27 10  1  0
 24 14  1  0
M  END
>  <Compound_ID>  (336) 
CHEMBL3357442

>  <Molecule Name>  (336) 
nan

>  <Molecular Weight>  (336) 
475.96

>  <AlogP>  (336) 
2.91

>  <Smiles>  (336) 
CN(c1ccccc1Nc1nc(Nc2cccc(NC(=O)CN)c2)ncc1Cl)S(C)(=O)=O

>  <Standard Type>  (336) 
IC50

>  <Standard Relation>  (336) 
'='

>  <Standard Units>  (336) 
nM

>  <Standard Value>  (336) 
7.7

>  <Assay ChEMBL ID>  (336) 
CHEMBL3364272

>  <Assay Description>  (336) 
Inhibition of ALK (unknown origin) after 60 mins by ELISA

>  <BAO Format ID>  (336) 
BAO_0000357

>  <BAO Label>  (336) 
single protein format

>  <Assay Organism>  (336) 
Homo sapiens

>  <Target ChEMBL ID>  (336) 
CHEMBL4247

>  <Target Name>  (336) 
ALK tyrosine kinase receptor

>  <Target Organism>  (336) 
Homo sapiens

>  <Target Type>  (336) 
SINGLE PROTEIN

>  <Document ChEMBL ID>  (336) 
CHEMBL3351234

>  <Source Description>  (336) 
Scientific Literature

>  <Document Journal>  (336) 
J Med Chem

>  <Document Year>  (336) 
2015.0

>  <Active>  (336) 
1.0

>  <bits>  (336) 
<rdkit.DataStructs.cDataStructs.ExplicitBitVect object at 0x000002422F18BA00>

>  <Group>  (336) 
G2

$$$$

     RDKit          2D

 38 42  0  0  0  0  0  0  0  0999 V2000
   -5.8147  -11.2594    0.0000 C   0  0  0  0  0  0  0  0  0  0  0  0
   -7.0282  -10.3778    0.0000 C   0  0  0  0  0  0  0  0  0  0  0  0
   -8.3985  -10.9879    0.0000 C   0  0  0  0  0  0  0  0  0  0  0  0
   -6.8714   -8.8860    0.0000 S   0  0  0  0  0  0  0  0  0  0  0  0
   -5.3796   -9.0428    0.0000 O   0  0  0  0  0  0  0  0  0  0  0  0
   -8.3632   -8.7292    0.0000 O   0  0  0  0  0  0  0  0  0  0  0  0
   -6.7146   -7.3942    0.0000 C   0  0  0  0  0  0  0  0  0  0  0  0
   -7.9281   -6.5125    0.0000 C   0  0  0  0  0  0  0  0  0  0  0  0
   -7.7713   -5.0207    0.0000 C   0  0  0  0  0  0  0  0  0  0  0  0
   -6.4010   -4.4106    0.0000 C   0  0  0  0  0  0  0  0  0  0  0  0
   -5.1875   -5.2923    0.0000 C   0  0  0  0  0  0  0  0  0  0  0  0
   -5.3443   -6.7841    0.0000 C   0  0  0  0  0  0  0  0  0  0  0  0
   -4.1308   -7.6658    0.0000 N   0  0  0  0  0  0  0  0  0  0  0  0
   -2.7604   -7.0557    0.0000 C   0  0  0  0  0  0  0  0  0  0  0  0
   -1.5469   -7.9373    0.0000 N   0  0  0  0  0  0  0  0  0  0  0  0
   -0.1766   -7.3272    0.0000 C   0  0  0  0  0  0  0  0  0  0  0  0
    1.0369   -8.2089    0.0000 N   0  0  0  0  0  0  0  0  0  0  0  0
    2.4072   -7.5988    0.0000 C   0  0  0  0  0  0  0  0  0  0  0  0
    3.6208   -8.4805    0.0000 C   0  0  0  0  0  0  0  0  0  0  0  0
    4.9911   -7.8704    0.0000 C   0  0  0  0  0  0  0  0  0  0  0  0
    5.1479   -6.3786    0.0000 C   0  0  0  0  0  0  0  0  0  0  0  0
    3.9343   -5.4969    0.0000 C   0  0  0  0  0  0  0  0  0  0  0  0
    4.0911   -4.0051    0.0000 N   0  0  0  0  0  0  0  0  0  0  0  0
    2.8776   -3.1235    0.0000 C   0  0  0  0  0  0  0  0  0  0  0  0
    1.5073   -3.7336    0.0000 O   0  0  0  0  0  0  0  0  0  0  0  0
    3.0344   -1.6317    0.0000 C   0  0  0  0  0  0  0  0  0  0  0  0
    1.8209   -0.7500    0.0000 N   0  0  0  0  0  0  0  0  0  0  0  0
    1.8209    0.7500    0.0000 C   0  0  0  0  0  0  0  0  0  0  0  0
    0.3943    1.2135    0.0000 C   0  0  0  0  0  0  0  0  0  0  0  0
    1.2760    0.0000    0.0000 C   0  0  0  0  0  0  0  0  0  0  0  0
    0.3943   -1.2135    0.0000 C   0  0  0  0  0  0  0  0  0  0  0  0
   -1.0323   -0.7500    0.0000 C   0  0  0  0  0  0  0  0  0  0  0  0
   -1.0323    0.7500    0.0000 N   0  0  0  0  0  0  0  0  0  0  0  0
    2.5640   -6.1070    0.0000 C   0  0  0  0  0  0  0  0  0  0  0  0
   -0.0198   -5.8355    0.0000 N   0  0  0  0  0  0  0  0  0  0  0  0
   -1.2333   -4.9538    0.0000 C   0  0  0  0  0  0  0  0  0  0  0  0
   -2.6037   -5.5639    0.0000 C   0  0  0  0  0  0  0  0  0  0  0  0
   -3.8172   -4.6822    0.0000 Cl  0  0  0  0  0  0  0  0  0  0  0  0
  1  2  1  0
  2  3  1  0
  2  4  1  0
  4  5  2  0
  4  6  2  0
  4  7  1  0
  7  8  2  0
  8  9  1  0
  9 10  2  0
 10 11  1  0
 11 12  2  0
 12 13  1  0
 13 14  1  0
 14 15  2  0
 15 16  1  0
 16 17  1  0
 17 18  1  0
 18 19  2  0
 19 20  1  0
 20 21  2  0
 21 22  1  0
 22 23  1  0
 23 24  1  0
 24 25  2  0
 24 26  1  0
 26 27  1  0
 27 28  1  0
 28 29  1  0
 29 30  1  0
 30 31  1  0
 31 32  1  0
 32 33  1  0
 22 34  2  0
 16 35  2  0
 35 36  1  0
 36 37  2  0
 37 38  1  0
 12  7  1  0
 37 14  1  0
 34 18  1  0
 31 27  1  0
 33 29  1  0
M  END
>  <Compound_ID>  (337) 
CHEMBL3357460

>  <Molecule Name>  (337) 
nan

>  <Molecular Weight>  (337) 
556.09

>  <AlogP>  (337) 
3.78

>  <Smiles>  (337) 
CC(C)S(=O)(=O)c1ccccc1Nc1nc(Nc2cccc(NC(=O)CN3CC4CC3CN4)c2)ncc1Cl

>  <Standard Type>  (337) 
IC50

>  <Standard Relation>  (337) 
'='

>  <Standard Units>  (337) 
nM

>  <Standard Value>  (337) 
2.3

>  <Assay ChEMBL ID>  (337) 
CHEMBL3364272

>  <Assay Description>  (337) 
Inhibition of ALK (unknown origin) after 60 mins by ELISA

>  <BAO Format ID>  (337) 
BAO_0000357

>  <BAO Label>  (337) 
single protein format

>  <Assay Organism>  (337) 
Homo sapiens

>  <Target ChEMBL ID>  (337) 
CHEMBL4247

>  <Target Name>  (337) 
ALK tyrosine kinase receptor

>  <Target Organism>  (337) 
Homo sapiens

>  <Target Type>  (337) 
SINGLE PROTEIN

>  <Document ChEMBL ID>  (337) 
CHEMBL3351234

>  <Source Description>  (337) 
Scientific Literature

>  <Document Journal>  (337) 
J Med Chem

>  <Document Year>  (337) 
2015.0

>  <Active>  (337) 
1.0

>  <bits>  (337) 
<rdkit.DataStructs.cDataStructs.ExplicitBitVect object at 0x000002422F189E70>

>  <Group>  (337) 
G2

$$$$

     RDKit          2D

 41 47  0  0  0  0  0  0  0  0999 V2000
    1.3396   -4.9944    0.0000 C   0  0  0  0  0  0  0  0  0  0  0  0
   -0.1568   -5.0991    0.0000 C   0  0  0  0  0  0  0  0  0  0  0  0
    0.2061   -6.5545    0.0000 C   0  0  0  0  0  0  0  0  0  0  0  0
   -1.5271   -5.7092    0.0000 C   0  0  0  0  0  0  0  0  0  0  0  0
   -1.6839   -7.2010    0.0000 C   0  0  0  0  0  0  0  0  0  0  0  0
   -3.0542   -7.8111    0.0000 C   0  0  0  0  0  0  0  0  0  0  0  0
   -3.2110   -9.3029    0.0000 N   0  0  0  0  0  0  0  0  0  0  0  0
   -4.5813   -9.9130    0.0000 C   0  0  0  0  0  0  0  0  0  0  0  0
   -4.7381  -11.4047    0.0000 C   0  0  0  0  0  0  0  0  0  0  0  0
   -3.5246  -12.2864    0.0000 C   0  0  0  0  0  0  0  0  0  0  0  0
   -3.6814  -13.7782    0.0000 N   0  0  0  0  0  0  0  0  0  0  0  0
   -2.5667  -14.7819    0.0000 C   0  0  0  0  0  0  0  0  0  0  0  0
   -3.1768  -16.1522    0.0000 C   0  0  0  0  0  0  0  0  0  0  0  0
   -4.6686  -15.9954    0.0000 C   0  0  0  0  0  0  0  0  0  0  0  0
   -4.9804  -14.5282    0.0000 C   0  0  0  0  0  0  0  0  0  0  0  0
   -2.1543  -11.6763    0.0000 C   0  0  0  0  0  0  0  0  0  0  0  0
   -1.9975  -10.1845    0.0000 C   0  0  0  0  0  0  0  0  0  0  0  0
   -4.2677   -6.9294    0.0000 C   0  0  0  0  0  0  0  0  0  0  0  0
   -5.6381   -7.5395    0.0000 S   0  0  0  0  0  0  0  0  0  0  0  0
   -6.2482   -6.1692    0.0000 O   0  0  0  0  0  0  0  0  0  0  0  0
   -5.0280   -8.9098    0.0000 O   0  0  0  0  0  0  0  0  0  0  0  0
   -7.0084   -8.1496    0.0000 N   0  0  0  0  0  0  0  0  0  0  0  0
   -7.3203   -9.6168    0.0000 C   0  0  0  0  0  0  0  0  0  0  0  0
   -8.8120   -9.7736    0.0000 C   0  0  0  0  0  0  0  0  0  0  0  0
   -9.4221   -8.4033    0.0000 C   0  0  0  0  0  0  0  0  0  0  0  0
   -8.3074   -7.3996    0.0000 C   0  0  0  0  0  0  0  0  0  0  0  0
   -4.1110   -5.4376    0.0000 C   0  0  0  0  0  0  0  0  0  0  0  0
   -2.7406   -4.8275    0.0000 C   0  0  0  0  0  0  0  0  0  0  0  0
   -2.5838   -3.3357    0.0000 C   0  0  0  0  0  0  0  0  0  0  0  0
   -3.7974   -2.4540    0.0000 O   0  0  0  0  0  0  0  0  0  0  0  0
   -1.2135   -2.7256    0.0000 C   0  0  0  0  0  0  0  0  0  0  0  0
   -0.0000   -3.6073    0.0000 C   0  0  0  0  0  0  0  0  0  0  0  0
    1.2135   -2.7256    0.0000 N   0  0  0  0  0  0  0  0  0  0  0  0
    0.7500   -1.2990    0.0000 C   0  0  0  0  0  0  0  0  0  0  0  0
    1.5000    0.0000    0.0000 C   0  0  0  0  0  0  0  0  0  0  0  0
    0.7500    1.2990    0.0000 C   0  0  0  0  0  0  0  0  0  0  0  0
    1.5000    2.5981    0.0000 C   0  0  0  0  0  0  0  0  0  0  0  0
    2.2500    3.8971    0.0000 N   0  0  0  0  0  0  0  0  0  0  0  0
   -0.7500    1.2990    0.0000 C   0  0  0  0  0  0  0  0  0  0  0  0
   -1.5000    0.0000    0.0000 C   0  0  0  0  0  0  0  0  0  0  0  0
   -0.7500   -1.2990    0.0000 C   0  0  0  0  0  0  0  0  0  0  0  0
  1  2  1  0
  2  3  1  0
  2  4  1  0
  4  5  2  0
  5  6  1  0
  6  7  1  0
  7  8  1  0
  8  9  1  0
  9 10  1  0
 10 11  1  0
 11 12  1  0
 12 13  1  0
 13 14  1  0
 14 15  1  0
 10 16  1  0
 16 17  1  0
  6 18  2  0
 18 19  1  0
 19 20  2  0
 19 21  2  0
 19 22  1  0
 22 23  1  0
 23 24  1  0
 24 25  1  0
 25 26  1  0
 18 27  1  0
 27 28  2  0
 28 29  1  0
 29 30  2  0
 29 31  1  0
 31 32  2  0
 32 33  1  0
 33 34  1  0
 34 35  2  0
 35 36  1  0
 36 37  1  0
 37 38  3  0
 36 39  2  0
 39 40  1  0
 40 41  2  0
 32  2  1  0
 41 34  1  0
 28  4  1  0
 41 31  1  0
 17  7  1  0
 26 22  1  0
 15 11  1  0
M  END
>  <Compound_ID>  (338) 
CHEMBL3909864

>  <Molecule Name>  (338) 
nan

>  <Molecular Weight>  (338) 
571.75

>  <AlogP>  (338) 
4.76

>  <Smiles>  (338) 
CC1(C)c2cc(N3CCC(N4CCCC4)CC3)c(S(=O)(=O)N3CCCC3)cc2C(=O)c2c1[nH]c1cc(C#N)ccc21

>  <Standard Type>  (338) 
IC50

>  <Standard Relation>  (338) 
'='

>  <Standard Units>  (338) 
nM

>  <Standard Value>  (338) 
8.753

>  <Assay ChEMBL ID>  (338) 
CHEMBL3887074

>  <Assay Description>  (338) 
Inhibition Assay: ALK-inhibiting activity was measured by following an activity of inhibiting phosphorylation by biotinylated peptide (EGPWLEEEEEAYGWMDF). For the detection of phosphorylation of the biotinylated peptide, time-resolved fluorescence measurement was performed using an anti-phosphorylated tyrosine antibody labeled with europium cryptate and streptavidin conjugated to XL665, i.e., an allophycocyanin derivative.

>  <BAO Format ID>  (338) 
BAO_0000357

>  <BAO Label>  (338) 
single protein format

>  <Assay Organism>  (338) 
Homo sapiens

>  <Target ChEMBL ID>  (338) 
CHEMBL4247

>  <Target Name>  (338) 
ALK tyrosine kinase receptor

>  <Target Organism>  (338) 
Homo sapiens

>  <Target Type>  (338) 
SINGLE PROTEIN

>  <Document ChEMBL ID>  (338) 
CHEMBL3886150

>  <Source Description>  (338) 
BindingDB Database

>  <Document Journal>  (338) 
nan

>  <Document Year>  (338) 
2015.0

>  <Active>  (338) 
1.0

>  <bits>  (338) 
<rdkit.DataStructs.cDataStructs.ExplicitBitVect object at 0x000002422F18AD50>

>  <Group>  (338) 
G2

$$$$

     RDKit          2D

 34 39  0  0  0  0  0  0  0  0999 V2000
   -7.0084   -8.1496    0.0000 C   0  0  0  0  0  0  0  0  0  0  0  0
   -5.6381   -7.5395    0.0000 C   0  0  0  0  0  0  0  0  0  0  0  0
   -4.2677   -6.9294    0.0000 C   0  0  0  0  0  0  0  0  0  0  0  0
   -4.1110   -5.4376    0.0000 C   0  0  0  0  0  0  0  0  0  0  0  0
   -2.7406   -4.8275    0.0000 C   0  0  0  0  0  0  0  0  0  0  0  0
   -1.5271   -5.7092    0.0000 C   0  0  0  0  0  0  0  0  0  0  0  0
   -1.6839   -7.2010    0.0000 C   0  0  0  0  0  0  0  0  0  0  0  0
   -3.0542   -7.8111    0.0000 C   0  0  0  0  0  0  0  0  0  0  0  0
   -3.2110   -9.3029    0.0000 N   0  0  0  0  0  0  0  0  0  0  0  0
   -4.5813   -9.9130    0.0000 C   0  0  0  0  0  0  0  0  0  0  0  0
   -4.7381  -11.4047    0.0000 C   0  0  0  0  0  0  0  0  0  0  0  0
   -3.5246  -12.2864    0.0000 N   0  0  0  0  0  0  0  0  0  0  0  0
   -3.6814  -13.7782    0.0000 C   0  0  0  0  0  0  0  0  0  0  0  0
   -4.8471  -14.7222    0.0000 C   0  0  0  0  0  0  0  0  0  0  0  0
   -3.9031  -15.8879    0.0000 C   0  0  0  0  0  0  0  0  0  0  0  0
   -2.7374  -14.9439    0.0000 C   0  0  0  0  0  0  0  0  0  0  0  0
   -2.1543  -11.6763    0.0000 C   0  0  0  0  0  0  0  0  0  0  0  0
   -1.9975  -10.1845    0.0000 C   0  0  0  0  0  0  0  0  0  0  0  0
   -0.1568   -5.0991    0.0000 C   0  0  0  0  0  0  0  0  0  0  0  0
    1.3396   -4.9944    0.0000 C   0  0  0  0  0  0  0  0  0  0  0  0
    0.2061   -6.5545    0.0000 C   0  0  0  0  0  0  0  0  0  0  0  0
   -0.0000   -3.6073    0.0000 C   0  0  0  0  0  0  0  0  0  0  0  0
    1.2135   -2.7256    0.0000 N   0  0  0  0  0  0  0  0  0  0  0  0
    0.7500   -1.2990    0.0000 C   0  0  0  0  0  0  0  0  0  0  0  0
    1.5000    0.0000    0.0000 C   0  0  0  0  0  0  0  0  0  0  0  0
    0.7500    1.2990    0.0000 C   0  0  0  0  0  0  0  0  0  0  0  0
    1.5000    2.5981    0.0000 C   0  0  0  0  0  0  0  0  0  0  0  0
    2.2500    3.8971    0.0000 N   0  0  0  0  0  0  0  0  0  0  0  0
   -0.7500    1.2990    0.0000 C   0  0  0  0  0  0  0  0  0  0  0  0
   -1.5000    0.0000    0.0000 C   0  0  0  0  0  0  0  0  0  0  0  0
   -0.7500   -1.2990    0.0000 C   0  0  0  0  0  0  0  0  0  0  0  0
   -1.2135   -2.7256    0.0000 C   0  0  0  0  0  0  0  0  0  0  0  0
   -2.5838   -3.3357    0.0000 C   0  0  0  0  0  0  0  0  0  0  0  0
   -3.7974   -2.4540    0.0000 O   0  0  0  0  0  0  0  0  0  0  0  0
  1  2  3  0
  2  3  1  0
  3  4  2  0
  4  5  1  0
  5  6  2  0
  6  7  1  0
  7  8  2  0
  8  9  1  0
  9 10  1  0
 10 11  1  0
 11 12  1  0
 12 13  1  0
 13 14  1  0
 14 15  1  0
 15 16  1  0
 12 17  1  0
 17 18  1  0
  6 19  1  0
 19 20  1  0
 19 21  1  0
 19 22  1  0
 22 23  1  0
 23 24  1  0
 24 25  2  0
 25 26  1  0
 26 27  1  0
 27 28  3  0
 26 29  2  0
 29 30  1  0
 30 31  2  0
 31 32  1  0
 32 33  1  0
 33 34  2  0
  8  3  1  0
 18  9  1  0
 32 22  2  0
 33  5  1  0
 16 13  1  0
 31 24  1  0
M  END
>  <Compound_ID>  (339) 
CHEMBL3946496

>  <Molecule Name>  (339) 
nan

>  <Molecular Weight>  (339) 
448.57

>  <AlogP>  (339) 
4.57

>  <Smiles>  (339) 
C#Cc1cc2c(cc1N1CCN(C3CCC3)CC1)C(C)(C)c1[nH]c3cc(C#N)ccc3c1C2=O

>  <Standard Type>  (339) 
IC50

>  <Standard Relation>  (339) 
'='

>  <Standard Units>  (339) 
nM

>  <Standard Value>  (339) 
0.32

>  <Assay ChEMBL ID>  (339) 
CHEMBL3887074

>  <Assay Description>  (339) 
Inhibition Assay: ALK-inhibiting activity was measured by following an activity of inhibiting phosphorylation by biotinylated peptide (EGPWLEEEEEAYGWMDF). For the detection of phosphorylation of the biotinylated peptide, time-resolved fluorescence measurement was performed using an anti-phosphorylated tyrosine antibody labeled with europium cryptate and streptavidin conjugated to XL665, i.e., an allophycocyanin derivative.

>  <BAO Format ID>  (339) 
BAO_0000357

>  <BAO Label>  (339) 
single protein format

>  <Assay Organism>  (339) 
Homo sapiens

>  <Target ChEMBL ID>  (339) 
CHEMBL4247

>  <Target Name>  (339) 
ALK tyrosine kinase receptor

>  <Target Organism>  (339) 
Homo sapiens

>  <Target Type>  (339) 
SINGLE PROTEIN

>  <Document ChEMBL ID>  (339) 
CHEMBL3886150

>  <Source Description>  (339) 
BindingDB Database

>  <Document Journal>  (339) 
nan

>  <Document Year>  (339) 
2015.0

>  <Active>  (339) 
1.0

>  <bits>  (339) 
<rdkit.DataStructs.cDataStructs.ExplicitBitVect object at 0x000002422F189C40>

>  <Group>  (339) 
G2

$$$$

     RDKit          2D

 30 33  0  0  0  0  0  0  0  0999 V2000
    6.2286   -2.5981    0.0000 C   0  0  0  0  0  0  0  0  0  0  0  0
    5.4786   -1.2990    0.0000 O   0  0  0  0  0  0  0  0  0  0  0  0
    3.9786   -1.2990    0.0000 C   0  0  0  0  0  0  0  0  0  0  0  0
    3.2286   -0.0000    0.0000 C   0  0  0  0  0  0  0  0  0  0  0  0
    1.7286    0.0000    0.0000 N   0  0  0  0  0  0  0  0  0  0  0  0
    1.0777    1.3515    0.0000 C   0  0  0  0  0  0  0  0  0  0  0  0
   -0.3846    1.6852    0.0000 C   0  0  0  0  0  0  0  0  0  0  0  0
   -1.5574    0.7500    0.0000 C   0  0  0  0  0  0  0  0  0  0  0  0
   -2.8564    1.5000    0.0000 C   0  0  0  0  0  0  0  0  0  0  0  0
   -4.1555    0.7500    0.0000 C   0  0  0  0  0  0  0  0  0  0  0  0
   -4.1555   -0.7500    0.0000 C   0  0  0  0  0  0  0  0  0  0  0  0
   -5.4545   -1.5000    0.0000 N   0  0  0  0  0  0  0  0  0  0  0  0
   -6.7535   -0.7500    0.0000 C   0  0  0  0  0  0  0  0  0  0  0  0
   -6.7535    0.7500    0.0000 N   0  0  0  0  0  0  0  0  0  0  0  0
   -8.0526    1.5000    0.0000 C   0  0  0  0  0  0  0  0  0  0  0  0
   -9.3516    0.7500    0.0000 C   0  0  0  0  0  0  0  0  0  0  0  0
  -10.6507    1.5000    0.0000 Cl  0  0  0  0  0  0  0  0  0  0  0  0
   -9.3516   -0.7500    0.0000 C   0  0  0  0  0  0  0  0  0  0  0  0
  -10.6507   -1.5000    0.0000 N   0  0  0  0  0  0  0  0  0  0  0  0
  -10.6507   -3.0000    0.0000 C   0  0  0  0  0  0  0  0  0  0  0  0
  -11.9497   -3.7500    0.0000 C   0  0  0  0  0  0  0  0  0  0  0  0
  -11.9497   -5.2500    0.0000 C   0  0  0  0  0  0  0  0  0  0  0  0
  -10.6507   -6.0000    0.0000 C   0  0  0  0  0  0  0  0  0  0  0  0
   -9.3516   -5.2500    0.0000 C   0  0  0  0  0  0  0  0  0  0  0  0
   -9.3516   -3.7500    0.0000 C   0  0  0  0  0  0  0  0  0  0  0  0
   -8.0526   -1.5000    0.0000 N   0  0  0  0  0  0  0  0  0  0  0  0
   -2.8564   -1.5000    0.0000 C   0  0  0  0  0  0  0  0  0  0  0  0
   -1.5574   -0.7500    0.0000 C   0  0  0  0  0  0  0  0  0  0  0  0
   -0.3846   -1.6852    0.0000 C   0  0  0  0  0  0  0  0  0  0  0  0
    1.0777   -1.3515    0.0000 C   0  0  0  0  0  0  0  0  0  0  0  0
  1  2  1  0
  2  3  1  0
  3  4  1  0
  4  5  1  0
  5  6  1  0
  6  7  1  0
  7  8  1  0
  8  9  2  0
  9 10  1  0
 10 11  2  0
 11 12  1  0
 12 13  1  0
 13 14  2  0
 14 15  1  0
 15 16  2  0
 16 17  1  0
 16 18  1  0
 18 19  1  0
 19 20  1  0
 20 21  1  0
 21 22  1  0
 22 23  1  0
 23 24  1  0
 24 25  1  0
 18 26  2  0
 11 27  1  0
 27 28  2  0
 28 29  1  0
 29 30  1  0
 30  5  1  0
 28  8  1  0
 26 13  1  0
 25 20  1  0
M  END
>  <Compound_ID>  (340) 
CHEMBL1796256

>  <Molecule Name>  (340) 
nan

>  <Molecular Weight>  (340) 
430.0

>  <AlogP>  (340) 
4.67

>  <Smiles>  (340) 
COCCN1CCc2ccc(Nc3ncc(Cl)c(NC4CCCCC4)n3)cc2CC1

>  <Standard Type>  (340) 
IC50

>  <Standard Relation>  (340) 
'='

>  <Standard Units>  (340) 
nM

>  <Standard Value>  (340) 
78.0

>  <Assay ChEMBL ID>  (340) 
CHEMBL1798383

>  <Assay Description>  (340) 
Inhibition of ALK

>  <BAO Format ID>  (340) 
BAO_0000357

>  <BAO Label>  (340) 
single protein format

>  <Assay Organism>  (340) 
None

>  <Target ChEMBL ID>  (340) 
CHEMBL4247

>  <Target Name>  (340) 
ALK tyrosine kinase receptor

>  <Target Organism>  (340) 
Homo sapiens

>  <Target Type>  (340) 
SINGLE PROTEIN

>  <Document ChEMBL ID>  (340) 
CHEMBL1795227

>  <Source Description>  (340) 
Scientific Literature

>  <Document Journal>  (340) 
Bioorg Med Chem Lett

>  <Document Year>  (340) 
2011.0

>  <Active>  (340) 
1.0

>  <bits>  (340) 
<rdkit.DataStructs.cDataStructs.ExplicitBitVect object at 0x000002422F1884A0>

>  <Group>  (340) 
G2

$$$$

     RDKit          2D

 36 39  0  0  0  0  0  0  0  0999 V2000
   -5.2500   -3.8971    0.0000 C   0  0  0  0  0  0  0  0  0  0  0  0
   -3.7500   -3.8971    0.0000 C   0  0  0  0  0  0  0  0  0  0  0  0
   -3.0000   -5.1962    0.0000 C   0  0  0  0  0  0  0  0  0  0  0  0
   -3.7500   -6.4952    0.0000 C   0  0  0  0  0  0  0  0  0  0  0  0
   -1.5000   -5.1962    0.0000 O   0  0  0  0  0  0  0  0  0  0  0  0
   -0.7500   -3.8971    0.0000 C   0  0  0  0  0  0  0  0  0  0  0  0
   -1.5000   -2.5981    0.0000 C   0  0  0  0  0  0  0  0  0  0  0  0
   -0.7500   -1.2990    0.0000 C   0  0  0  0  0  0  0  0  0  0  0  0
    0.7500   -1.2990    0.0000 C   0  0  0  0  0  0  0  0  0  0  0  0
    1.5000   -2.5981    0.0000 C   0  0  0  0  0  0  0  0  0  0  0  0
    0.7500   -3.8971    0.0000 C   0  0  0  0  0  0  0  0  0  0  0  0
    1.5000   -5.1962    0.0000 N   0  0  0  0  0  0  0  0  0  0  0  0
    0.7500   -6.4952    0.0000 C   0  0  0  0  0  0  0  0  0  0  0  0
   -0.7500   -6.4952    0.0000 N   0  0  0  0  0  0  0  0  0  0  0  0
   -1.5000   -7.7942    0.0000 C   0  0  0  0  0  0  0  0  0  0  0  0
   -0.7500   -9.0933    0.0000 C   0  0  0  0  0  0  0  0  0  0  0  0
   -1.5000  -10.3923    0.0000 Cl  0  0  0  0  0  0  0  0  0  0  0  0
    0.7500   -9.0933    0.0000 C   0  0  0  0  0  0  0  0  0  0  0  0
    1.5000  -10.3923    0.0000 N   0  0  0  0  0  0  0  0  0  0  0  0
    3.0000  -10.3923    0.0000 C   0  0  0  0  0  0  0  0  0  0  0  0
    3.7500   -9.0933    0.0000 C   0  0  0  0  0  0  0  0  0  0  0  0
    5.2500   -9.0933    0.0000 C   0  0  0  0  0  0  0  0  0  0  0  0
    6.0000  -10.3923    0.0000 C   0  0  0  0  0  0  0  0  0  0  0  0
    5.2500  -11.6913    0.0000 C   0  0  0  0  0  0  0  0  0  0  0  0
    3.7500  -11.6913    0.0000 C   0  0  0  0  0  0  0  0  0  0  0  0
    3.0000  -12.9904    0.0000 S   0  0  0  0  0  0  0  0  0  0  0  0
    1.7010  -12.2404    0.0000 O   0  0  0  0  0  0  0  0  0  0  0  0
    4.2990  -13.7404    0.0000 O   0  0  0  0  0  0  0  0  0  0  0  0
    2.2500  -14.2894    0.0000 C   0  0  0  0  0  0  0  0  0  0  0  0
    0.7500  -14.2894    0.0000 C   0  0  0  0  0  0  0  0  0  0  0  0
    3.0000  -15.5885    0.0000 C   0  0  0  0  0  0  0  0  0  0  0  0
    1.5000   -7.7942    0.0000 N   0  0  0  0  0  0  0  0  0  0  0  0
    1.5000    0.0000    0.0000 C   0  0  0  0  0  0  0  0  0  0  0  0
    0.7500    1.2990    0.0000 C   0  0  0  0  0  0  0  0  0  0  0  0
   -0.7500    1.2990    0.0000 N   0  0  0  0  0  0  0  0  0  0  0  0
   -1.5000    0.0000    0.0000 C   0  0  0  0  0  0  0  0  0  0  0  0
  1  2  1  0
  2  3  1  0
  3  4  1  0
  3  5  1  0
  5  6  1  0
  6  7  2  0
  7  8  1  0
  8  9  2  0
  9 10  1  0
 10 11  2  0
 11 12  1  0
 12 13  1  0
 13 14  2  0
 14 15  1  0
 15 16  2  0
 16 17  1  0
 16 18  1  0
 18 19  1  0
 19 20  1  0
 20 21  2  0
 21 22  1  0
 22 23  2  0
 23 24  1  0
 24 25  2  0
 25 26  1  0
 26 27  2  0
 26 28  2  0
 26 29  1  0
 29 30  1  0
 29 31  1  0
 18 32  2  0
  9 33  1  0
 33 34  1  0
 34 35  1  0
 35 36  1  0
 11  6  1  0
 32 13  1  0
 36  8  1  0
 25 20  1  0
M  END
>  <Compound_ID>  (341) 
CHEMBL4745560

>  <Molecule Name>  (341) 
nan

>  <Molecular Weight>  (341) 
530.09

>  <AlogP>  (341) 
5.62

>  <Smiles>  (341) 
CCC(C)Oc1cc2c(cc1Nc1ncc(Cl)c(Nc3ccccc3S(=O)(=O)C(C)C)n1)CCNC2

>  <Standard Type>  (341) 
IC50

>  <Standard Relation>  (341) 
'='

>  <Standard Units>  (341) 
nM

>  <Standard Value>  (341) 
2.3

>  <Assay ChEMBL ID>  (341) 
CHEMBL4716189

>  <Assay Description>  (341) 
Inhibition of crizotinib-resistant ALK L1196M mutant (unknown origin) using peptide substrate incubated for 30 mins in presence of ATP by fluorescence assay

>  <BAO Format ID>  (341) 
BAO_0000357

>  <BAO Label>  (341) 
single protein format

>  <Assay Organism>  (341) 
Homo sapiens

>  <Target ChEMBL ID>  (341) 
CHEMBL4247

>  <Target Name>  (341) 
ALK tyrosine kinase receptor

>  <Target Organism>  (341) 
Homo sapiens

>  <Target Type>  (341) 
SINGLE PROTEIN

>  <Document ChEMBL ID>  (341) 
CHEMBL4715694

>  <Source Description>  (341) 
Scientific Literature

>  <Document Journal>  (341) 
Bioorg Med Chem

>  <Document Year>  (341) 
2016.0

>  <Active>  (341) 
1.0

>  <bits>  (341) 
<rdkit.DataStructs.cDataStructs.ExplicitBitVect object at 0x000002422F189380>

>  <Group>  (341) 
G2

$$$$

     RDKit          2D

 33 36  0  0  0  0  0  0  0  0999 V2000
    0.1160  -14.9315    0.0000 C   0  0  0  0  0  0  0  0  0  0  0  0
   -1.0975  -14.0498    0.0000 C   0  0  0  0  0  0  0  0  0  0  0  0
   -0.9408  -12.5580    0.0000 N   0  0  0  0  0  0  0  0  0  0  0  0
    0.4296  -11.9479    0.0000 C   0  0  0  0  0  0  0  0  0  0  0  0
    1.6431  -12.8296    0.0000 C   0  0  0  0  0  0  0  0  0  0  0  0
   -2.1543  -11.6763    0.0000 C   0  0  0  0  0  0  0  0  0  0  0  0
   -1.9975  -10.1845    0.0000 C   0  0  0  0  0  0  0  0  0  0  0  0
   -3.2110   -9.3029    0.0000 O   0  0  0  0  0  0  0  0  0  0  0  0
   -3.0542   -7.8111    0.0000 C   0  0  0  0  0  0  0  0  0  0  0  0
   -1.6839   -7.2010    0.0000 C   0  0  0  0  0  0  0  0  0  0  0  0
   -1.5271   -5.7092    0.0000 C   0  0  0  0  0  0  0  0  0  0  0  0
   -2.7406   -4.8275    0.0000 C   0  0  0  0  0  0  0  0  0  0  0  0
   -4.1110   -5.4376    0.0000 C   0  0  0  0  0  0  0  0  0  0  0  0
   -4.2677   -6.9294    0.0000 C   0  0  0  0  0  0  0  0  0  0  0  0
   -5.6381   -7.5395    0.0000 C   0  0  0  0  0  0  0  0  0  0  0  0
   -6.8516   -6.6578    0.0000 C   0  0  0  0  0  0  0  0  0  0  0  0
   -5.7949   -9.0313    0.0000 O   0  0  0  0  0  0  0  0  0  0  0  0
   -2.5838   -3.3357    0.0000 C   0  0  0  0  0  0  0  0  0  0  0  0
   -3.7974   -2.4540    0.0000 O   0  0  0  0  0  0  0  0  0  0  0  0
   -1.2135   -2.7256    0.0000 C   0  0  0  0  0  0  0  0  0  0  0  0
   -0.0000   -3.6073    0.0000 C   0  0  0  0  0  0  0  0  0  0  0  0
    1.2135   -2.7256    0.0000 N   0  0  0  0  0  0  0  0  0  0  0  0
    0.7500   -1.2990    0.0000 C   0  0  0  0  0  0  0  0  0  0  0  0
    1.5000    0.0000    0.0000 C   0  0  0  0  0  0  0  0  0  0  0  0
    0.7500    1.2990    0.0000 C   0  0  0  0  0  0  0  0  0  0  0  0
    1.5000    2.5981    0.0000 C   0  0  0  0  0  0  0  0  0  0  0  0
    2.2500    3.8971    0.0000 N   0  0  0  0  0  0  0  0  0  0  0  0
   -0.7500    1.2990    0.0000 C   0  0  0  0  0  0  0  0  0  0  0  0
   -1.5000    0.0000    0.0000 C   0  0  0  0  0  0  0  0  0  0  0  0
   -0.7500   -1.2990    0.0000 C   0  0  0  0  0  0  0  0  0  0  0  0
   -0.1568   -5.0991    0.0000 C   0  0  0  0  0  0  0  0  0  0  0  0
    0.2061   -6.5545    0.0000 C   0  0  0  0  0  0  0  0  0  0  0  0
    1.3396   -4.9944    0.0000 C   0  0  0  0  0  0  0  0  0  0  0  0
  1  2  1  0
  2  3  1  0
  3  4  1  0
  4  5  1  0
  3  6  1  0
  6  7  1  0
  7  8  1  0
  8  9  1  0
  9 10  2  0
 10 11  1  0
 11 12  2  0
 12 13  1  0
 13 14  2  0
 14 15  1  0
 15 16  1  0
 15 17  2  0
 12 18  1  0
 18 19  2  0
 18 20  1  0
 20 21  2  0
 21 22  1  0
 22 23  1  0
 23 24  2  0
 24 25  1  0
 25 26  1  0
 26 27  3  0
 25 28  2  0
 28 29  1  0
 29 30  2  0
 21 31  1  0
 31 32  1  0
 31 33  1  0
 14  9  1  0
 30 20  1  0
 31 11  1  0
 30 23  1  0
M  END
>  <Compound_ID>  (342) 
CHEMBL3932266

>  <Molecule Name>  (342) 
nan

>  <Molecular Weight>  (342) 
443.55

>  <AlogP>  (342) 
4.83

>  <Smiles>  (342) 
CCN(CC)CCOc1cc2c(cc1C(C)=O)C(=O)c1c([nH]c3cc(C#N)ccc13)C2(C)C

>  <Standard Type>  (342) 
IC50

>  <Standard Relation>  (342) 
'='

>  <Standard Units>  (342) 
nM

>  <Standard Value>  (342) 
0.53

>  <Assay ChEMBL ID>  (342) 
CHEMBL3887074

>  <Assay Description>  (342) 
Inhibition Assay: ALK-inhibiting activity was measured by following an activity of inhibiting phosphorylation by biotinylated peptide (EGPWLEEEEEAYGWMDF). For the detection of phosphorylation of the biotinylated peptide, time-resolved fluorescence measurement was performed using an anti-phosphorylated tyrosine antibody labeled with europium cryptate and streptavidin conjugated to XL665, i.e., an allophycocyanin derivative.

>  <BAO Format ID>  (342) 
BAO_0000357

>  <BAO Label>  (342) 
single protein format

>  <Assay Organism>  (342) 
Homo sapiens

>  <Target ChEMBL ID>  (342) 
CHEMBL4247

>  <Target Name>  (342) 
ALK tyrosine kinase receptor

>  <Target Organism>  (342) 
Homo sapiens

>  <Target Type>  (342) 
SINGLE PROTEIN

>  <Document ChEMBL ID>  (342) 
CHEMBL3886150

>  <Source Description>  (342) 
BindingDB Database

>  <Document Journal>  (342) 
nan

>  <Document Year>  (342) 
2015.0

>  <Active>  (342) 
1.0

>  <bits>  (342) 
<rdkit.DataStructs.cDataStructs.ExplicitBitVect object at 0x000002422F2312A0>

>  <Group>  (342) 
G2

$$$$

     RDKit          2D

 35 38  0  0  0  0  0  0  0  0999 V2000
   -3.0000   -5.1962    0.0000 C   0  0  0  0  0  0  0  0  0  0  0  0
   -1.5000   -5.1962    0.0000 O   0  0  0  0  0  0  0  0  0  0  0  0
   -0.7500   -3.8971    0.0000 C   0  0  0  0  0  0  0  0  0  0  0  0
   -1.5000   -2.5981    0.0000 C   0  0  0  0  0  0  0  0  0  0  0  0
   -0.7500   -1.2990    0.0000 C   0  0  0  0  0  0  0  0  0  0  0  0
    0.7500   -1.2990    0.0000 C   0  0  0  0  0  0  0  0  0  0  0  0
    1.5000   -2.5981    0.0000 C   0  0  0  0  0  0  0  0  0  0  0  0
    0.7500   -3.8971    0.0000 C   0  0  0  0  0  0  0  0  0  0  0  0
    1.5000   -5.1962    0.0000 N   0  0  0  0  0  0  0  0  0  0  0  0
    0.7500   -6.4952    0.0000 C   0  0  0  0  0  0  0  0  0  0  0  0
   -0.7500   -6.4952    0.0000 N   0  0  0  0  0  0  0  0  0  0  0  0
   -1.5000   -7.7942    0.0000 C   0  0  0  0  0  0  0  0  0  0  0  0
   -0.7500   -9.0933    0.0000 C   0  0  0  0  0  0  0  0  0  0  0  0
   -1.5000  -10.3923    0.0000 Cl  0  0  0  0  0  0  0  0  0  0  0  0
    0.7500   -9.0933    0.0000 C   0  0  0  0  0  0  0  0  0  0  0  0
    1.5000  -10.3923    0.0000 N   0  0  0  0  0  0  0  0  0  0  0  0
    3.0000  -10.3923    0.0000 C   0  0  0  0  0  0  0  0  0  0  0  0
    3.7500   -9.0933    0.0000 C   0  0  0  0  0  0  0  0  0  0  0  0
    5.2500   -9.0933    0.0000 C   0  0  0  0  0  0  0  0  0  0  0  0
    6.0000  -10.3923    0.0000 C   0  0  0  0  0  0  0  0  0  0  0  0
    5.2500  -11.6913    0.0000 C   0  0  0  0  0  0  0  0  0  0  0  0
    3.7500  -11.6913    0.0000 C   0  0  0  0  0  0  0  0  0  0  0  0
    3.0000  -12.9904    0.0000 S   0  0  0  0  0  0  0  0  0  0  0  0
    1.7010  -12.2404    0.0000 O   0  0  0  0  0  0  0  0  0  0  0  0
    4.2990  -13.7404    0.0000 O   0  0  0  0  0  0  0  0  0  0  0  0
    2.2500  -14.2894    0.0000 C   0  0  0  0  0  0  0  0  0  0  0  0
    0.7500  -14.2894    0.0000 C   0  0  0  0  0  0  0  0  0  0  0  0
    3.0000  -15.5885    0.0000 C   0  0  0  0  0  0  0  0  0  0  0  0
    1.5000   -7.7942    0.0000 N   0  0  0  0  0  0  0  0  0  0  0  0
    1.5000    0.0000    0.0000 C   0  0  0  0  0  0  0  0  0  0  0  0
    0.7500    1.2990    0.0000 C   0  0  0  0  0  0  0  0  0  0  0  0
   -0.7500    1.2990    0.0000 N   0  0  0  0  0  4  0  0  0  0  0  0
   -2.1595    1.8121    0.0000 C   0  0  0  0  0  0  0  0  0  0  0  0
   -0.4895    2.7762    0.0000 C   0  0  0  0  0  0  0  0  0  0  0  0
   -1.5000    0.0000    0.0000 C   0  0  0  0  0  0  0  0  0  0  0  0
  1  2  1  0
  2  3  1  0
  3  4  2  0
  4  5  1  0
  5  6  2  0
  6  7  1  0
  7  8  2  0
  8  9  1  0
  9 10  1  0
 10 11  2  0
 11 12  1  0
 12 13  2  0
 13 14  1  0
 13 15  1  0
 15 16  1  0
 16 17  1  0
 17 18  2  0
 18 19  1  0
 19 20  2  0
 20 21  1  0
 21 22  2  0
 22 23  1  0
 23 24  2  0
 23 25  2  0
 23 26  1  0
 26 27  1  0
 26 28  1  0
 15 29  2  0
  6 30  1  0
 30 31  1  0
 31 32  1  0
 32 33  1  0
 32 34  1  0
 32 35  1  0
  8  3  1  0
 29 10  1  0
 35  5  1  0
 22 17  1  0
M  CHG  1  32   1
M  END
>  <Compound_ID>  (343) 
CHEMBL4762215

>  <Molecule Name>  (343) 
nan

>  <Molecular Weight>  (343) 
643.98

>  <AlogP>  (343) 
4.94

>  <Smiles>  (343) 
COc1cc2c(cc1Nc1ncc(Cl)c(Nc3ccccc3S(=O)(=O)C(C)C)n1)CC[N+](C)(C)C2

>  <Standard Type>  (343) 
IC50

>  <Standard Relation>  (343) 
'='

>  <Standard Units>  (343) 
nM

>  <Standard Value>  (343) 
3.3

>  <Assay ChEMBL ID>  (343) 
CHEMBL4716189

>  <Assay Description>  (343) 
Inhibition of crizotinib-resistant ALK L1196M mutant (unknown origin) using peptide substrate incubated for 30 mins in presence of ATP by fluorescence assay

>  <BAO Format ID>  (343) 
BAO_0000357

>  <BAO Label>  (343) 
single protein format

>  <Assay Organism>  (343) 
Homo sapiens

>  <Target ChEMBL ID>  (343) 
CHEMBL4247

>  <Target Name>  (343) 
ALK tyrosine kinase receptor

>  <Target Organism>  (343) 
Homo sapiens

>  <Target Type>  (343) 
SINGLE PROTEIN

>  <Document ChEMBL ID>  (343) 
CHEMBL4715694

>  <Source Description>  (343) 
Scientific Literature

>  <Document Journal>  (343) 
Bioorg Med Chem

>  <Document Year>  (343) 
2016.0

>  <Active>  (343) 
1.0

>  <bits>  (343) 
<rdkit.DataStructs.cDataStructs.ExplicitBitVect object at 0x000002422F230EB0>

>  <Group>  (343) 
G2

$$$$

     RDKit          2D

 28 32  0  0  0  0  0  0  0  0999 V2000
    3.7500   -6.4952    0.0000 O   0  0  0  0  0  0  0  0  0  0  0  0
    3.0000   -5.1962    0.0000 C   0  0  0  0  0  0  0  0  0  0  0  0
    1.5000   -5.1962    0.0000 C   0  0  0  0  0  0  0  0  0  0  0  0
    0.7500   -3.8971    0.0000 C   0  0  0  0  0  0  0  0  0  0  0  0
    1.5000   -2.5981    0.0000 C   0  0  0  0  0  0  0  0  0  0  0  0
    0.7500   -1.2990    0.0000 C   0  0  0  0  0  0  0  0  0  0  0  0
    1.5000    0.0000    0.0000 C   0  0  0  0  0  0  0  0  0  0  0  0
    0.7500    1.2990    0.0000 C   0  0  0  0  0  0  0  0  0  0  0  0
   -0.7500    1.2990    0.0000 C   0  0  0  0  0  0  0  0  0  0  0  0
   -1.7537    2.4138    0.0000 C   0  0  0  0  0  0  0  0  0  0  0  0
   -1.4418    3.8810    0.0000 C   0  0  0  0  0  0  0  0  0  0  0  0
   -2.4455    4.9957    0.0000 C   0  0  0  0  0  0  0  0  0  0  0  0
   -1.6955    6.2947    0.0000 C   0  0  0  0  0  0  0  0  0  0  0  0
   -0.2283    5.9829    0.0000 C   0  0  0  0  0  0  0  0  0  0  0  0
    0.8864    6.9866    0.0000 C   0  0  0  0  0  0  0  0  0  0  0  0
    2.3130    6.5230    0.0000 N   0  0  0  0  0  0  0  0  0  0  0  0
    2.6249    5.0558    0.0000 C   0  0  0  0  0  0  0  0  0  0  0  0
    4.0515    4.5923    0.0000 C   0  0  0  0  0  0  0  0  0  0  0  0
    5.1662    5.5960    0.0000 O   0  0  0  0  0  0  0  0  0  0  0  0
    4.8543    7.0632    0.0000 C   0  0  0  0  0  0  0  0  0  0  0  0
    3.4277    7.5267    0.0000 C   0  0  0  0  0  0  0  0  0  0  0  0
   -0.0715    4.4911    0.0000 O   0  0  0  0  0  0  0  0  0  0  0  0
   -3.1240    1.8037    0.0000 N   0  0  0  0  0  0  0  0  0  0  0  0
   -2.9672    0.3119    0.0000 N   0  0  0  0  0  0  0  0  0  0  0  0
   -1.5000    0.0000    0.0000 C   0  0  0  0  0  0  0  0  0  0  0  0
   -0.7500   -1.2990    0.0000 N   0  0  0  0  0  0  0  0  0  0  0  0
    3.0000   -2.5981    0.0000 C   0  0  0  0  0  0  0  0  0  0  0  0
    3.7500   -3.8971    0.0000 C   0  0  0  0  0  0  0  0  0  0  0  0
  1  2  1  0
  2  3  2  0
  3  4  1  0
  4  5  2  0
  5  6  1  0
  6  7  2  0
  7  8  1  0
  8  9  2  0
  9 10  1  0
 10 11  1  0
 11 12  2  0
 12 13  1  0
 13 14  2  0
 14 15  1  0
 15 16  1  0
 16 17  1  0
 17 18  1  0
 18 19  1  0
 19 20  1  0
 20 21  1  0
 14 22  1  0
 10 23  2  0
 23 24  1  0
 24 25  1  0
 25 26  2  0
  5 27  1  0
 27 28  2  0
 28  2  1  0
 26  6  1  0
 25  9  1  0
 22 11  1  0
 21 16  1  0
M  END
>  <Compound_ID>  (344) 
CHEMBL4483645

>  <Molecule Name>  (344) 
nan

>  <Molecular Weight>  (344) 
376.42

>  <AlogP>  (344) 
3.42

>  <Smiles>  (344) 
Oc1ccc(-c2ccc3c(-c4ccc(CN5CCOCC5)o4)n[nH]c3n2)cc1

>  <Standard Type>  (344) 
IC50

>  <Standard Relation>  (344) 
'='

>  <Standard Units>  (344) 
nM

>  <Standard Value>  (344) 
94.05

>  <Assay ChEMBL ID>  (344) 
CHEMBL4370936

>  <Assay Description>  (344) 
Inhibition of recombinant ALK (unknown origin) using peptide substrate measured after 1 hr by LanthaScreen assay

>  <BAO Format ID>  (344) 
BAO_0000357

>  <BAO Label>  (344) 
single protein format

>  <Assay Organism>  (344) 
Homo sapiens

>  <Target ChEMBL ID>  (344) 
CHEMBL4247

>  <Target Name>  (344) 
ALK tyrosine kinase receptor

>  <Target Organism>  (344) 
Homo sapiens

>  <Target Type>  (344) 
SINGLE PROTEIN

>  <Document ChEMBL ID>  (344) 
CHEMBL4368941

>  <Source Description>  (344) 
Scientific Literature

>  <Document Journal>  (344) 
Bioorg Med Chem Lett

>  <Document Year>  (344) 
2019.0

>  <Active>  (344) 
1.0

>  <bits>  (344) 
<rdkit.DataStructs.cDataStructs.ExplicitBitVect object at 0x000002422F230A50>

>  <Group>  (344) 
G2

$$$$

     RDKit          2D

 35 38  0  0  0  0  0  0  0  0999 V2000
    3.7500   -1.2990    0.0000 C   0  0  0  0  0  0  0  0  0  0  0  0
    3.0000    0.0000    0.0000 C   0  0  0  0  0  0  0  0  0  0  0  0
    1.5000    0.0000    0.0000 N   0  0  0  0  0  0  0  0  0  0  0  0
    0.7500   -1.2990    0.0000 C   0  0  0  0  0  0  0  0  0  0  0  0
   -0.7500   -1.2990    0.0000 C   0  0  0  0  0  0  0  0  0  0  0  0
   -1.5000    0.0000    0.0000 C   0  0  0  0  0  0  0  0  0  0  0  0
   -3.0000    0.0000    0.0000 C   0  0  0  0  0  0  0  0  0  0  0  0
   -3.7500    1.2990    0.0000 C   0  0  0  0  0  0  0  0  0  0  0  0
   -5.2500    1.2990    0.0000 N   0  0  0  0  0  0  0  0  0  0  0  0
   -6.0000    2.5981    0.0000 C   0  0  0  0  0  0  0  0  0  0  0  0
   -5.2500    3.8971    0.0000 N   0  0  0  0  0  0  0  0  0  0  0  0
   -6.0000    5.1962    0.0000 C   0  0  0  0  0  0  0  0  0  0  0  0
   -7.5000    5.1962    0.0000 C   0  0  0  0  0  0  0  0  0  0  0  0
   -8.2500    6.4952    0.0000 Cl  0  0  0  0  0  0  0  0  0  0  0  0
   -8.2500    3.8971    0.0000 C   0  0  0  0  0  0  0  0  0  0  0  0
   -9.7500    3.8971    0.0000 N   0  0  0  0  0  0  0  0  0  0  0  0
  -10.5000    2.5981    0.0000 C   0  0  0  0  0  0  0  0  0  0  0  0
   -9.7500    1.2990    0.0000 C   0  0  0  0  0  0  0  0  0  0  0  0
  -10.5000    0.0000    0.0000 C   0  0  0  0  0  0  0  0  0  0  0  0
  -12.0000    0.0000    0.0000 C   0  0  0  0  0  0  0  0  0  0  0  0
  -12.7500    1.2990    0.0000 C   0  0  0  0  0  0  0  0  0  0  0  0
  -12.0000    2.5981    0.0000 C   0  0  0  0  0  0  0  0  0  0  0  0
  -12.7500    3.8971    0.0000 S   0  0  0  0  0  0  0  0  0  0  0  0
  -11.4510    4.6471    0.0000 O   0  0  0  0  0  0  0  0  0  0  0  0
  -14.0490    3.1471    0.0000 O   0  0  0  0  0  0  0  0  0  0  0  0
  -13.5000    5.1962    0.0000 C   0  0  0  0  0  0  0  0  0  0  0  0
  -15.0000    5.1962    0.0000 C   0  0  0  0  0  0  0  0  0  0  0  0
  -12.7500    6.4952    0.0000 C   0  0  0  0  0  0  0  0  0  0  0  0
   -7.5000    2.5981    0.0000 N   0  0  0  0  0  0  0  0  0  0  0  0
   -3.0000    2.5981    0.0000 C   0  0  0  0  0  0  0  0  0  0  0  0
   -3.7500    3.8971    0.0000 O   0  0  0  0  0  0  0  0  0  0  0  0
   -3.0000    5.1962    0.0000 C   0  0  0  0  0  0  0  0  0  0  0  0
   -1.5000    2.5981    0.0000 C   0  0  0  0  0  0  0  0  0  0  0  0
   -0.7500    1.2990    0.0000 C   0  0  0  0  0  0  0  0  0  0  0  0
    0.7500    1.2990    0.0000 C   0  0  0  0  0  0  0  0  0  0  0  0
  1  2  1  0
  2  3  1  0
  3  4  1  0
  4  5  1  0
  5  6  1  0
  6  7  2  0
  7  8  1  0
  8  9  1  0
  9 10  1  0
 10 11  2  0
 11 12  1  0
 12 13  2  0
 13 14  1  0
 13 15  1  0
 15 16  1  0
 16 17  1  0
 17 18  2  0
 18 19  1  0
 19 20  2  0
 20 21  1  0
 21 22  2  0
 22 23  1  0
 23 24  2  0
 23 25  2  0
 23 26  1  0
 26 27  1  0
 26 28  1  0
 15 29  2  0
  8 30  2  0
 30 31  1  0
 31 32  1  0
 30 33  1  0
 33 34  2  0
 34 35  1  0
 35  3  1  0
 34  6  1  0
 29 10  1  0
 22 17  1  0
M  END
>  <Compound_ID>  (345) 
CHEMBL4765052

>  <Molecule Name>  (345) 
nan

>  <Molecular Weight>  (345) 
516.07

>  <AlogP>  (345) 
5.19

>  <Smiles>  (345) 
CCN1CCc2cc(Nc3ncc(Cl)c(Nc4ccccc4S(=O)(=O)C(C)C)n3)c(OC)cc2C1

>  <Standard Type>  (345) 
IC50

>  <Standard Relation>  (345) 
'='

>  <Standard Units>  (345) 
nM

>  <Standard Value>  (345) 
20.0

>  <Assay ChEMBL ID>  (345) 
CHEMBL4716189

>  <Assay Description>  (345) 
Inhibition of crizotinib-resistant ALK L1196M mutant (unknown origin) using peptide substrate incubated for 30 mins in presence of ATP by fluorescence assay

>  <BAO Format ID>  (345) 
BAO_0000357

>  <BAO Label>  (345) 
single protein format

>  <Assay Organism>  (345) 
Homo sapiens

>  <Target ChEMBL ID>  (345) 
CHEMBL4247

>  <Target Name>  (345) 
ALK tyrosine kinase receptor

>  <Target Organism>  (345) 
Homo sapiens

>  <Target Type>  (345) 
SINGLE PROTEIN

>  <Document ChEMBL ID>  (345) 
CHEMBL4715694

>  <Source Description>  (345) 
Scientific Literature

>  <Document Journal>  (345) 
Bioorg Med Chem

>  <Document Year>  (345) 
2016.0

>  <Active>  (345) 
1.0

>  <bits>  (345) 
<rdkit.DataStructs.cDataStructs.ExplicitBitVect object at 0x000002422F230350>

>  <Group>  (345) 
G2

$$$$

     RDKit          2D

 38 41  0  0  0  0  0  0  0  0999 V2000
    5.2500   -1.2990    0.0000 C   0  0  0  0  0  0  0  0  0  0  0  0
    3.7500   -1.2990    0.0000 N   0  0  0  0  0  0  0  0  0  0  0  0
    3.0000    0.0000    0.0000 C   0  0  0  0  0  0  0  0  0  0  0  0
    3.7500    1.2990    0.0000 O   0  0  0  0  0  0  0  0  0  0  0  0
    1.5000    0.0000    0.0000 C   0  0  0  0  0  0  0  0  0  0  0  0
    0.7500   -1.2990    0.0000 C   0  0  0  0  0  0  0  0  0  0  0  0
   -0.7500   -1.2990    0.0000 C   0  0  0  0  0  0  0  0  0  0  0  0
   -1.5000    0.0000    0.0000 C   0  0  0  0  0  0  0  0  0  0  0  0
   -0.7500    1.2990    0.0000 C   0  0  0  0  0  0  0  0  0  0  0  0
    0.7500    1.2990    0.0000 C   0  0  0  0  0  0  0  0  0  0  0  0
    1.5000    2.5981    0.0000 N   0  0  0  0  0  0  0  0  0  0  0  0
    0.7500    3.8971    0.0000 C   0  0  0  0  0  0  0  0  0  0  0  0
    1.5000    5.1962    0.0000 N   0  0  0  0  0  0  0  0  0  0  0  0
    0.7500    6.4952    0.0000 C   0  0  0  0  0  0  0  0  0  0  0  0
    1.5000    7.7942    0.0000 N   0  0  0  0  0  0  0  0  0  0  0  0
    3.0000    7.7942    0.0000 C   0  0  0  0  0  0  0  0  0  0  0  0
    3.7500    6.4952    0.0000 C   0  0  0  0  0  0  0  0  0  0  0  0
    5.2500    6.4952    0.0000 C   0  0  0  0  0  0  0  0  0  0  0  0
    6.0000    7.7942    0.0000 C   0  0  0  0  0  0  0  0  0  0  0  0
    7.5000    7.7942    0.0000 N   0  0  0  0  0  0  0  0  0  0  0  0
    8.3817    9.0078    0.0000 C   0  0  0  0  0  0  0  0  0  0  0  0
    9.8083    8.5442    0.0000 C   0  0  0  0  0  0  0  0  0  0  0  0
    9.8083    7.0442    0.0000 C   0  0  0  0  0  0  0  0  0  0  0  0
    8.3817    6.5807    0.0000 C   0  0  0  0  0  0  0  0  0  0  0  0
    7.9182    5.1541    0.0000 C   0  0  0  0  0  0  0  0  0  0  0  0
    6.4509    4.8423    0.0000 O   0  0  0  0  0  0  0  0  0  0  0  0
    8.9218    4.0394    0.0000 N   0  0  0  0  0  0  0  0  0  0  0  0
    8.4583    2.6128    0.0000 C   0  0  0  0  0  0  0  0  0  0  0  0
    9.4620    1.4981    0.0000 C   0  0  0  0  0  0  0  0  0  0  0  0
    8.9985    0.0715    0.0000 O   0  0  0  0  0  0  0  0  0  0  0  0
    5.2500    9.0933    0.0000 C   0  0  0  0  0  0  0  0  0  0  0  0
    3.7500    9.0933    0.0000 C   0  0  0  0  0  0  0  0  0  0  0  0
    3.0000   10.3923    0.0000 O   0  0  0  0  0  0  0  0  0  0  0  0
    3.7500   11.6913    0.0000 C   0  0  0  0  0  0  0  0  0  0  0  0
   -0.7500    6.4952    0.0000 N   0  0  0  0  0  0  0  0  0  0  0  0
   -1.5000    5.1962    0.0000 C   0  0  0  0  0  0  0  0  0  0  0  0
   -0.7500    3.8971    0.0000 C   0  0  0  0  0  0  0  0  0  0  0  0
   -1.5000    2.5981    0.0000 Cl  0  0  0  0  0  0  0  0  0  0  0  0
  1  2  1  0
  2  3  1  0
  3  4  2  0
  3  5  1  0
  5  6  2  0
  6  7  1  0
  7  8  2  0
  8  9  1  0
  9 10  2  0
 10 11  1  0
 11 12  1  0
 12 13  2  0
 13 14  1  0
 14 15  1  0
 15 16  1  0
 16 17  2  0
 17 18  1  0
 18 19  2  0
 19 20  1  0
 20 21  1  0
 21 22  2  0
 22 23  1  0
 23 24  2  0
 24 25  1  0
 25 26  2  0
 25 27  1  0
 27 28  1  0
 28 29  1  0
 29 30  1  0
 19 31  1  0
 31 32  2  0
 32 33  1  0
 33 34  1  0
 14 35  2  0
 35 36  1  0
 36 37  2  0
 37 38  1  0
 10  5  1  0
 37 12  1  0
 32 16  1  0
 24 20  1  0
M  END
>  <Compound_ID>  (346) 
CHEMBL4758571

>  <Molecule Name>  (346) 
nan

>  <Molecular Weight>  (346) 
535.99

>  <AlogP>  (346) 
3.50

>  <Smiles>  (346) 
CNC(=O)c1ccccc1Nc1nc(Nc2ccc(-n3cccc3C(=O)NCCO)cc2OC)ncc1Cl

>  <Standard Type>  (346) 
IC50

>  <Standard Relation>  (346) 
'='

>  <Standard Units>  (346) 
nM

>  <Standard Value>  (346) 
9.6

>  <Assay ChEMBL ID>  (346) 
CHEMBL4672519

>  <Assay Description>  (346) 
Inhibition of wild-type ALK (unknown origin) incubated for 1 hr

>  <BAO Format ID>  (346) 
BAO_0000357

>  <BAO Label>  (346) 
single protein format

>  <Assay Organism>  (346) 
Homo sapiens

>  <Target ChEMBL ID>  (346) 
CHEMBL4247

>  <Target Name>  (346) 
ALK tyrosine kinase receptor

>  <Target Organism>  (346) 
Homo sapiens

>  <Target Type>  (346) 
SINGLE PROTEIN

>  <Document ChEMBL ID>  (346) 
CHEMBL4665881

>  <Source Description>  (346) 
Scientific Literature

>  <Document Journal>  (346) 
Bioorg Med Chem

>  <Document Year>  (346) 
2020.0

>  <Active>  (346) 
1.0

>  <bits>  (346) 
<rdkit.DataStructs.cDataStructs.ExplicitBitVect object at 0x000002422F230040>

>  <Group>  (346) 
G2

$$$$

     RDKit          2D

 33 37  0  0  0  0  0  0  0  0999 V2000
    3.7500   -6.4952    0.0000 C   0  0  0  0  0  0  0  0  0  0  0  0
    3.0000   -5.1962    0.0000 O   0  0  0  0  0  0  0  0  0  0  0  0
    1.5000   -5.1962    0.0000 C   0  0  0  0  0  0  0  0  0  0  0  0
    0.7500   -6.4952    0.0000 C   0  0  0  0  0  0  0  0  0  0  0  0
   -0.7500   -6.4952    0.0000 C   0  0  0  0  0  0  0  0  0  0  0  0
   -1.5000   -7.7942    0.0000 N   0  0  0  0  0  0  0  0  0  0  0  0
   -3.0000   -7.7942    0.0000 C   0  0  0  0  0  0  0  0  0  0  0  0
   -3.7500   -9.0933    0.0000 C   0  0  0  0  0  0  0  0  0  0  0  0
   -3.0000  -10.3923    0.0000 N   0  0  0  0  0  0  0  0  0  0  0  0
   -3.7500  -11.6913    0.0000 C   0  0  0  0  0  0  0  0  0  0  0  0
   -1.5000  -10.3923    0.0000 C   0  0  0  0  0  0  0  0  0  0  0  0
   -0.7500   -9.0933    0.0000 C   0  0  0  0  0  0  0  0  0  0  0  0
   -1.5000   -5.1962    0.0000 C   0  0  0  0  0  0  0  0  0  0  0  0
   -0.7500   -3.8971    0.0000 C   0  0  0  0  0  0  0  0  0  0  0  0
    0.7500   -3.8971    0.0000 C   0  0  0  0  0  0  0  0  0  0  0  0
    1.5000   -2.5981    0.0000 N   0  0  0  0  0  0  0  0  0  0  0  0
    0.7500   -1.2990    0.0000 C   0  0  0  0  0  0  0  0  0  0  0  0
    1.5000    0.0000    0.0000 N   0  0  0  0  0  0  0  0  0  0  0  0
    0.7500    1.2990    0.0000 C   0  0  0  0  0  0  0  0  0  0  0  0
   -0.7500    1.2990    0.0000 C   0  0  0  0  0  0  0  0  0  0  0  0
   -1.7537    2.4138    0.0000 C   0  0  0  0  0  0  0  0  0  0  0  0
   -3.1240    1.8037    0.0000 C   0  0  0  0  0  0  0  0  0  0  0  0
   -2.9672    0.3119    0.0000 C   0  0  0  0  0  0  0  0  0  0  0  0
   -4.0819   -0.6918    0.0000 C   0  0  0  0  0  0  0  0  0  0  0  0
   -5.5085   -0.2283    0.0000 C   0  0  0  0  0  0  0  0  0  0  0  0
   -6.6232   -1.2320    0.0000 C   0  0  0  0  0  0  0  0  0  0  0  0
   -6.3114   -2.6992    0.0000 C   0  0  0  0  0  0  0  0  0  0  0  0
   -4.8848   -3.1627    0.0000 C   0  0  0  0  0  0  0  0  0  0  0  0
   -3.7701   -2.1590    0.0000 C   0  0  0  0  0  0  0  0  0  0  0  0
   -2.3435   -2.6226    0.0000 O   0  0  0  0  0  0  0  0  0  0  0  0
   -2.0316   -4.0898    0.0000 C   0  0  0  0  0  0  0  0  0  0  0  0
   -1.5000    0.0000    0.0000 N   0  0  0  0  0  0  0  0  0  0  0  0
   -0.7500   -1.2990    0.0000 N   0  0  0  0  0  0  0  0  0  0  0  0
  1  2  1  0
  2  3  1  0
  3  4  2  0
  4  5  1  0
  5  6  1  0
  6  7  1  0
  7  8  1  0
  8  9  1  0
  9 10  1  0
  9 11  1  0
 11 12  1  0
  5 13  2  0
 13 14  1  0
 14 15  2  0
 15 16  1  0
 16 17  1  0
 17 18  1  0
 18 19  2  0
 19 20  1  0
 20 21  2  0
 21 22  1  0
 22 23  2  0
 23 24  1  0
 24 25  2  0
 25 26  1  0
 26 27  2  0
 27 28  1  0
 28 29  2  0
 29 30  1  0
 30 31  1  0
 23 32  1  0
 32 33  1  0
 15  3  1  0
 33 17  2  0
 12  6  1  0
 32 20  1  0
 29 24  1  0
M  END
>  <Compound_ID>  (347) 
CHEMBL1822519

>  <Molecule Name>  (347) 
nan

>  <Molecular Weight>  (347) 
444.54

>  <AlogP>  (347) 
3.91

>  <Smiles>  (347) 
COc1cc(N2CCN(C)CC2)ccc1Nc1ncc2ccc(-c3ccccc3OC)n2n1

>  <Standard Type>  (347) 
IC50

>  <Standard Relation>  (347) 
'='

>  <Standard Units>  (347) 
nM

>  <Standard Value>  (347) 
9.0

>  <Assay ChEMBL ID>  (347) 
CHEMBL1825977

>  <Assay Description>  (347) 
Inhibition of human recombinant ALK assessed as phosphorylated product using PLC-gamma/GST substrate by modified ELISA method

>  <BAO Format ID>  (347) 
BAO_0000357

>  <BAO Label>  (347) 
single protein format

>  <Assay Organism>  (347) 
Homo sapiens

>  <Target ChEMBL ID>  (347) 
CHEMBL4247

>  <Target Name>  (347) 
ALK tyrosine kinase receptor

>  <Target Organism>  (347) 
Homo sapiens

>  <Target Type>  (347) 
SINGLE PROTEIN

>  <Document ChEMBL ID>  (347) 
CHEMBL1821719

>  <Source Description>  (347) 
Scientific Literature

>  <Document Journal>  (347) 
J Med Chem

>  <Document Year>  (347) 
2011.0

>  <Active>  (347) 
1.0

>  <bits>  (347) 
<rdkit.DataStructs.cDataStructs.ExplicitBitVect object at 0x000002422F230C10>

>  <Group>  (347) 
G2

$$$$

     RDKit          2D

 63 69  0  0  0  0  0  0  0  0999 V2000
   -3.0000    2.5981    0.0000 C   0  0  0  0  0  0  0  0  0  0  0  0
   -1.5000    2.5981    0.0000 C   0  0  0  0  0  0  0  0  0  0  0  0
   -0.7500    3.8971    0.0000 C   0  0  0  0  0  0  0  0  0  0  0  0
   -0.7500    1.2990    0.0000 C   0  0  0  0  0  0  0  0  0  0  0  0
   -1.5000    0.0000    0.0000 C   0  0  0  0  0  0  0  0  0  0  0  0
   -0.7500   -1.2990    0.0000 C   0  0  0  0  0  0  0  0  0  0  0  0
   -1.5000   -2.5981    0.0000 C   0  0  0  0  0  0  0  0  0  0  0  0
   -0.8899   -3.9684    0.0000 O   0  0  0  0  0  0  0  0  0  0  0  0
   -2.0046   -4.9721    0.0000 N   0  0  0  0  0  0  0  0  0  0  0  0
   -3.3037   -4.2221    0.0000 C   0  0  0  0  0  0  0  0  0  0  0  0
   -4.6740   -4.8322    0.0000 C   0  0  0  0  0  0  0  0  0  0  0  0
   -4.8308   -6.3240    0.0000 O   0  0  0  0  0  0  0  0  0  0  0  0
   -5.8875   -3.9505    0.0000 N   0  0  0  0  0  0  0  0  0  0  0  0
   -7.2578   -4.5606    0.0000 C   0  0  0  0  0  0  0  0  0  0  0  0
   -8.4713   -3.6789    0.0000 C   0  0  0  0  0  0  0  0  0  0  0  0
   -8.3145   -2.1872    0.0000 O   0  0  0  0  0  0  0  0  0  0  0  0
   -9.8417   -4.2890    0.0000 N   0  0  0  0  0  0  0  0  0  0  0  0
  -11.0552   -3.4074    0.0000 C   0  0  0  0  0  0  0  0  0  0  0  0
  -10.8984   -1.9156    0.0000 C   0  0  0  0  0  0  0  0  0  0  0  0
  -12.1119   -1.0339    0.0000 C   0  0  0  0  0  0  0  0  0  0  0  0
  -13.4822   -1.6440    0.0000 C   0  0  0  0  0  0  0  0  0  0  0  0
  -13.6390   -3.1358    0.0000 C   0  0  0  0  0  0  0  0  0  0  0  0
  -15.0093   -3.7459    0.0000 N   0  0  0  0  0  0  0  0  0  0  0  0
  -16.2229   -2.8642    0.0000 C   0  0  0  0  0  0  0  0  0  0  0  0
  -16.0661   -1.3724    0.0000 N   0  0  0  0  0  0  0  0  0  0  0  0
  -17.2796   -0.4908    0.0000 C   0  0  0  0  0  0  0  0  0  0  0  0
  -18.6499   -1.1009    0.0000 C   0  0  0  0  0  0  0  0  0  0  0  0
  -19.8634   -0.2192    0.0000 Cl  0  0  0  0  0  0  0  0  0  0  0  0
  -18.8067   -2.5927    0.0000 C   0  0  0  0  0  0  0  0  0  0  0  0
  -20.1770   -3.2028    0.0000 N   0  0  0  0  0  0  0  0  0  0  0  0
  -20.3338   -4.6945    0.0000 C   0  0  0  0  0  0  0  0  0  0  0  0
  -19.1203   -5.5762    0.0000 C   0  0  0  0  0  0  0  0  0  0  0  0
  -19.2771   -7.0680    0.0000 C   0  0  0  0  0  0  0  0  0  0  0  0
  -20.6474   -7.6781    0.0000 C   0  0  0  0  0  0  0  0  0  0  0  0
  -21.8609   -6.7964    0.0000 C   0  0  0  0  0  0  0  0  0  0  0  0
  -21.7041   -5.3046    0.0000 C   0  0  0  0  0  0  0  0  0  0  0  0
  -22.9177   -4.4230    0.0000 S   0  0  0  0  0  0  0  0  0  0  0  0
  -22.0360   -3.2094    0.0000 O   0  0  0  0  0  0  0  0  0  0  0  0
  -23.7993   -5.6365    0.0000 O   0  0  0  0  0  0  0  0  0  0  0  0
  -24.1312   -3.5413    0.0000 C   0  0  0  0  0  0  0  0  0  0  0  0
  -25.5015   -4.1514    0.0000 C   0  0  0  0  0  0  0  0  0  0  0  0
  -23.9744   -2.0495    0.0000 C   0  0  0  0  0  0  0  0  0  0  0  0
  -17.5932   -3.4743    0.0000 N   0  0  0  0  0  0  0  0  0  0  0  0
  -12.4255   -4.0175    0.0000 C   0  0  0  0  0  0  0  0  0  0  0  0
   -2.9918   -2.7549    0.0000 C   0  0  0  0  0  0  0  0  0  0  0  0
   -3.9955   -1.6402    0.0000 C   0  0  0  0  0  0  0  0  0  0  0  0
   -3.5320   -0.2136    0.0000 C   0  0  0  0  0  0  0  0  0  0  0  0
   -4.5356    0.9012    0.0000 C   0  0  0  0  0  0  0  0  0  0  0  0
   -6.0029    0.5893    0.0000 C   0  0  0  0  0  0  0  0  0  0  0  0
   -7.0066    1.7040    0.0000 C   0  0  0  0  0  0  0  0  0  0  0  0
   -6.5430    3.1306    0.0000 N   0  0  0  0  0  0  0  0  0  0  0  0
   -5.0758    3.4425    0.0000 C   0  0  0  0  0  0  0  0  0  0  0  0
   -4.6123    4.8690    0.0000 C   0  0  0  0  0  0  0  0  0  0  0  0
   -5.6160    5.9838    0.0000 O   0  0  0  0  0  0  0  0  0  0  0  0
   -7.0832    5.6719    0.0000 C   0  0  0  0  0  0  0  0  0  0  0  0
   -7.5467    4.2453    0.0000 C   0  0  0  0  0  0  0  0  0  0  0  0
   -6.4664   -0.8373    0.0000 C   0  0  0  0  0  0  0  0  0  0  0  0
   -5.4627   -1.9520    0.0000 C   0  0  0  0  0  0  0  0  0  0  0  0
    0.7500   -1.2990    0.0000 C   0  0  0  0  0  0  0  0  0  0  0  0
    1.5000   -2.5981    0.0000 O   0  0  0  0  0  0  0  0  0  0  0  0
    1.5000   -0.0000    0.0000 C   0  0  0  0  0  0  0  0  0  0  0  0
    0.7500    1.2990    0.0000 C   0  0  0  0  0  0  0  0  0  0  0  0
    1.5000    2.5981    0.0000 O   0  0  0  0  0  0  0  0  0  0  0  0
  1  2  1  0
  2  3  1  0
  2  4  1  0
  4  5  2  0
  5  6  1  0
  6  7  1  0
  7  8  1  0
  8  9  1  0
  9 10  2  0
 10 11  1  0
 11 12  2  0
 11 13  1  0
 13 14  1  0
 14 15  1  0
 15 16  2  0
 15 17  1  0
 17 18  1  0
 18 19  2  0
 19 20  1  0
 20 21  2  0
 21 22  1  0
 22 23  1  0
 23 24  1  0
 24 25  2  0
 25 26  1  0
 26 27  2  0
 27 28  1  0
 27 29  1  0
 29 30  1  0
 30 31  1  0
 31 32  2  0
 32 33  1  0
 33 34  2  0
 34 35  1  0
 35 36  2  0
 36 37  1  0
 37 38  2  0
 37 39  2  0
 37 40  1  0
 40 41  1  0
 40 42  1  0
 29 43  2  0
 22 44  2  0
 10 45  1  0
 45 46  1  0
 46 47  2  0
 47 48  1  0
 48 49  2  0
 49 50  1  0
 50 51  1  0
 51 52  1  0
 52 53  1  0
 53 54  1  0
 54 55  1  0
 55 56  1  0
 49 57  1  0
 57 58  2  0
  6 59  2  0
 59 60  1  0
 59 61  1  0
 61 62  2  0
 62 63  1  0
 62  4  1  0
 45  7  2  0
 58 46  1  0
 44 18  1  0
 56 51  1  0
 43 24  1  0
 36 31  1  0
M  END
>  <Compound_ID>  (348) 
CHEMBL4162888

>  <Molecule Name>  (348) 
nan

>  <Molecular Weight>  (348) 
895.44

>  <AlogP>  (348) 
7.86

>  <Smiles>  (348) 
CC(C)c1cc(-c2onc(C(=O)NCC(=O)Nc3cccc(Nc4ncc(Cl)c(Nc5ccccc5S(=O)(=O)C(C)C)n4)c3)c2-c2ccc(CN3CCOCC3)cc2)c(O)cc1O

>  <Standard Type>  (348) 
IC50

>  <Standard Relation>  (348) 
'='

>  <Standard Units>  (348) 
nM

>  <Standard Value>  (348) 
53.7

>  <Assay ChEMBL ID>  (348) 
CHEMBL4153979

>  <Assay Description>  (348) 
Inhibition of recombinant ALK (unknown origin) using poly (Glu,Tyr)4:1 as substrate after 60 mins by ELISA

>  <BAO Format ID>  (348) 
BAO_0000357

>  <BAO Label>  (348) 
single protein format

>  <Assay Organism>  (348) 
Homo sapiens

>  <Target ChEMBL ID>  (348) 
CHEMBL4247

>  <Target Name>  (348) 
ALK tyrosine kinase receptor

>  <Target Organism>  (348) 
Homo sapiens

>  <Target Type>  (348) 
SINGLE PROTEIN

>  <Document ChEMBL ID>  (348) 
CHEMBL4152232

>  <Source Description>  (348) 
Scientific Literature

>  <Document Journal>  (348) 
Eur J Med Chem

>  <Document Year>  (348) 
2018.0

>  <Active>  (348) 
1.0

>  <bits>  (348) 
<rdkit.DataStructs.cDataStructs.ExplicitBitVect object at 0x000002422F230F20>

>  <Group>  (348) 
G2

$$$$

     RDKit          2D

 40 45  0  0  0  0  0  0  0  0999 V2000
   -6.8516   -6.6578    0.0000 C   0  0  0  0  0  0  0  0  0  0  0  0
   -5.6381   -7.5395    0.0000 C   0  0  0  0  0  0  0  0  0  0  0  0
   -4.2677   -6.9294    0.0000 C   0  0  0  0  0  0  0  0  0  0  0  0
   -4.1110   -5.4376    0.0000 C   0  0  0  0  0  0  0  0  0  0  0  0
   -2.7406   -4.8275    0.0000 C   0  0  0  0  0  0  0  0  0  0  0  0
   -1.5271   -5.7092    0.0000 C   0  0  0  0  0  0  0  0  0  0  0  0
   -1.6839   -7.2010    0.0000 C   0  0  0  0  0  0  0  0  0  0  0  0
   -3.0542   -7.8111    0.0000 C   0  0  0  0  0  0  0  0  0  0  0  0
   -3.2110   -9.3029    0.0000 N   0  0  0  0  0  0  0  0  0  0  0  0
   -4.5813   -9.9130    0.0000 C   0  0  0  0  0  0  0  0  0  0  0  0
   -4.7381  -11.4047    0.0000 C   0  0  0  0  0  0  0  0  0  0  0  0
   -3.5246  -12.2864    0.0000 N   0  0  0  0  0  0  0  0  0  0  0  0
   -3.6814  -13.7782    0.0000 C   0  0  0  0  0  0  0  0  0  0  0  0
   -5.0517  -14.3883    0.0000 C   0  0  0  0  0  0  0  0  0  0  0  0
   -5.4146  -12.9329    0.0000 O   0  0  0  0  0  0  0  0  0  0  0  0
   -4.2129  -15.6319    0.0000 C   0  0  0  0  0  0  0  0  0  0  0  0
   -4.8705  -16.9801    0.0000 C   0  0  0  0  0  0  0  0  0  0  0  0
   -4.0317  -18.2236    0.0000 C   0  0  0  0  0  0  0  0  0  0  0  0
   -6.3668  -17.0847    0.0000 O   0  0  0  0  0  0  0  0  0  0  0  0
   -7.2056  -15.8411    0.0000 C   0  0  0  0  0  0  0  0  0  0  0  0
   -8.7020  -15.9458    0.0000 C   0  0  0  0  0  0  0  0  0  0  0  0
   -6.5481  -14.4929    0.0000 C   0  0  0  0  0  0  0  0  0  0  0  0
   -2.1543  -11.6763    0.0000 C   0  0  0  0  0  0  0  0  0  0  0  0
   -1.9975  -10.1845    0.0000 C   0  0  0  0  0  0  0  0  0  0  0  0
   -0.1568   -5.0991    0.0000 C   0  0  0  0  0  0  0  0  0  0  0  0
    1.3396   -4.9944    0.0000 C   0  0  0  0  0  0  0  0  0  0  0  0
    0.2061   -6.5545    0.0000 C   0  0  0  0  0  0  0  0  0  0  0  0
   -0.0000   -3.6073    0.0000 C   0  0  0  0  0  0  0  0  0  0  0  0
    1.2135   -2.7256    0.0000 N   0  0  0  0  0  0  0  0  0  0  0  0
    0.7500   -1.2990    0.0000 C   0  0  0  0  0  0  0  0  0  0  0  0
    1.5000    0.0000    0.0000 C   0  0  0  0  0  0  0  0  0  0  0  0
    0.7500    1.2990    0.0000 C   0  0  0  0  0  0  0  0  0  0  0  0
    1.5000    2.5981    0.0000 C   0  0  0  0  0  0  0  0  0  0  0  0
    2.2500    3.8971    0.0000 N   0  0  0  0  0  0  0  0  0  0  0  0
   -0.7500    1.2990    0.0000 C   0  0  0  0  0  0  0  0  0  0  0  0
   -1.5000    0.0000    0.0000 C   0  0  0  0  0  0  0  0  0  0  0  0
   -0.7500   -1.2990    0.0000 C   0  0  0  0  0  0  0  0  0  0  0  0
   -1.2135   -2.7256    0.0000 C   0  0  0  0  0  0  0  0  0  0  0  0
   -2.5838   -3.3357    0.0000 C   0  0  0  0  0  0  0  0  0  0  0  0
   -3.7974   -2.4540    0.0000 O   0  0  0  0  0  0  0  0  0  0  0  0
  1  2  1  0
  2  3  1  0
  3  4  2  0
  4  5  1  0
  5  6  2  0
  6  7  1  0
  7  8  2  0
  8  9  1  0
  9 10  1  0
 10 11  1  0
 11 12  1  0
 12 13  1  0
 13 14  1  0
 14 15  1  0
 14 16  1  0
 16 17  1  0
 17 18  1  0
 17 19  1  0
 19 20  1  0
 20 21  1  0
 20 22  1  0
 12 23  1  0
 23 24  1  0
  6 25  1  0
 25 26  1  0
 25 27  1  0
 25 28  1  0
 28 29  1  0
 29 30  1  0
 30 31  2  0
 31 32  1  0
 32 33  1  0
 33 34  3  0
 32 35  2  0
 35 36  1  0
 36 37  2  0
 37 38  1  0
 38 39  1  0
 39 40  2  0
  8  3  1  0
 24  9  1  0
 38 28  2  0
 39  5  1  0
 22 14  1  0
 37 30  1  0
M  END
>  <Compound_ID>  (349) 
CHEMBL3897774

>  <Molecule Name>  (349) 
nan

>  <Molecular Weight>  (349) 
540.71

>  <AlogP>  (349) 
4.91

>  <Smiles>  (349) 
CCc1cc2c(cc1N1CCN(CC3(O)CC(C)OC(C)C3)CC1)C(C)(C)c1[nH]c3cc(C#N)ccc3c1C2=O

>  <Standard Type>  (349) 
IC50

>  <Standard Relation>  (349) 
'='

>  <Standard Units>  (349) 
nM

>  <Standard Value>  (349) 
2.4

>  <Assay ChEMBL ID>  (349) 
CHEMBL3864889

>  <Assay Description>  (349) 
Inhibition of recombinant wild type ALK (unknown origin) using poly (Glu,Tyr)4:1 as substrate after 60 mins by ELISA

>  <BAO Format ID>  (349) 
BAO_0000357

>  <BAO Label>  (349) 
single protein format

>  <Assay Organism>  (349) 
Homo sapiens

>  <Target ChEMBL ID>  (349) 
CHEMBL4247

>  <Target Name>  (349) 
ALK tyrosine kinase receptor

>  <Target Organism>  (349) 
Homo sapiens

>  <Target Type>  (349) 
SINGLE PROTEIN

>  <Document ChEMBL ID>  (349) 
CHEMBL3864153

>  <Source Description>  (349) 
Scientific Literature

>  <Document Journal>  (349) 
Bioorg Med Chem Lett

>  <Document Year>  (349) 
2016.0

>  <Active>  (349) 
1.0

>  <bits>  (349) 
<rdkit.DataStructs.cDataStructs.ExplicitBitVect object at 0x000002422F231AF0>

>  <Group>  (349) 
G2

$$$$

     RDKit          2D

 27 30  0  0  0  0  0  0  0  0999 V2000
    2.6491   -3.5623    0.0000 C   0  0  0  0  0  0  0  0  0  0  0  0
    1.5000   -2.5981    0.0000 C   0  0  0  0  0  0  0  0  0  0  0  0
    2.6491   -1.6339    0.0000 C   0  0  0  0  0  0  0  0  0  0  0  0
    0.7500   -1.2990    0.0000 C   0  0  0  0  0  0  0  0  0  0  0  0
    1.5000    0.0000    0.0000 C   0  0  0  0  0  0  0  0  0  0  0  0
    0.7500    1.2990    0.0000 C   0  0  0  0  0  0  0  0  0  0  0  0
    1.5000    2.5981    0.0000 O   0  0  0  0  0  0  0  0  0  0  0  0
    3.0000    2.5981    0.0000 C   0  0  0  0  0  0  0  0  0  0  0  0
    3.7500    3.8971    0.0000 C   0  0  0  0  0  0  0  0  0  0  0  0
    3.0000    5.1962    0.0000 O   0  0  0  0  0  0  0  0  0  0  0  0
    5.2500    3.8971    0.0000 O   0  0  0  0  0  0  0  0  0  0  0  0
   -0.7500    1.2990    0.0000 C   0  0  0  0  0  0  0  0  0  0  0  0
   -1.5000    0.0000    0.0000 C   0  0  0  0  0  0  0  0  0  0  0  0
   -0.7500   -1.2990    0.0000 C   0  0  0  0  0  0  0  0  0  0  0  0
   -1.5000   -2.5981    0.0000 C   0  0  0  0  0  0  0  0  0  0  0  0
   -3.0000   -2.5981    0.0000 O   0  0  0  0  0  0  0  0  0  0  0  0
   -0.7500   -3.8971    0.0000 C   0  0  0  0  0  0  0  0  0  0  0  0
    0.7500   -3.8971    0.0000 C   0  0  0  0  0  0  0  0  0  0  0  0
    1.2135   -5.3237    0.0000 N   0  0  0  0  0  0  0  0  0  0  0  0
    0.0000   -6.2054    0.0000 C   0  0  0  0  0  0  0  0  0  0  0  0
   -0.1568   -7.6972    0.0000 C   0  0  0  0  0  0  0  0  0  0  0  0
   -1.5271   -8.3073    0.0000 C   0  0  0  0  0  0  0  0  0  0  0  0
   -1.6839   -9.7990    0.0000 C   0  0  0  0  0  0  0  0  0  0  0  0
   -1.8407  -11.2908    0.0000 N   0  0  0  0  0  0  0  0  0  0  0  0
   -2.7406   -7.4256    0.0000 C   0  0  0  0  0  0  0  0  0  0  0  0
   -2.5838   -5.9338    0.0000 C   0  0  0  0  0  0  0  0  0  0  0  0
   -1.2135   -5.3237    0.0000 C   0  0  0  0  0  0  0  0  0  0  0  0
  1  2  1  0
  2  3  1  0
  2  4  1  0
  4  5  2  0
  5  6  1  0
  6  7  1  0
  7  8  1  0
  8  9  1  0
  9 10  2  0
  9 11  1  0
  6 12  2  0
 12 13  1  0
 13 14  2  0
 14 15  1  0
 15 16  2  0
 15 17  1  0
 17 18  2  0
 18 19  1  0
 19 20  1  0
 20 21  2  0
 21 22  1  0
 22 23  1  0
 23 24  3  0
 22 25  2  0
 25 26  1  0
 26 27  2  0
 18  2  1  0
 27 20  1  0
 14  4  1  0
 27 17  1  0
M  END
>  <Compound_ID>  (350) 
CHEMBL3894226

>  <Molecule Name>  (350) 
nan

>  <Molecular Weight>  (350) 
360.37

>  <AlogP>  (350) 
3.37

>  <Smiles>  (350) 
CC1(C)c2cc(OCC(=O)O)ccc2C(=O)c2c1[nH]c1cc(C#N)ccc21

>  <Standard Type>  (350) 
IC50

>  <Standard Relation>  (350) 
'='

>  <Standard Units>  (350) 
nM

>  <Standard Value>  (350) 
45.96

>  <Assay ChEMBL ID>  (350) 
CHEMBL3887074

>  <Assay Description>  (350) 
Inhibition Assay: ALK-inhibiting activity was measured by following an activity of inhibiting phosphorylation by biotinylated peptide (EGPWLEEEEEAYGWMDF). For the detection of phosphorylation of the biotinylated peptide, time-resolved fluorescence measurement was performed using an anti-phosphorylated tyrosine antibody labeled with europium cryptate and streptavidin conjugated to XL665, i.e., an allophycocyanin derivative.

>  <BAO Format ID>  (350) 
BAO_0000357

>  <BAO Label>  (350) 
single protein format

>  <Assay Organism>  (350) 
Homo sapiens

>  <Target ChEMBL ID>  (350) 
CHEMBL4247

>  <Target Name>  (350) 
ALK tyrosine kinase receptor

>  <Target Organism>  (350) 
Homo sapiens

>  <Target Type>  (350) 
SINGLE PROTEIN

>  <Document ChEMBL ID>  (350) 
CHEMBL3886150

>  <Source Description>  (350) 
BindingDB Database

>  <Document Journal>  (350) 
nan

>  <Document Year>  (350) 
2015.0

>  <Active>  (350) 
1.0

>  <bits>  (350) 
<rdkit.DataStructs.cDataStructs.ExplicitBitVect object at 0x000002422F233760>

>  <Group>  (350) 
G2

$$$$

     RDKit          2D

 30 34  0  0  0  0  0  0  0  0999 V2000
    2.6491   -3.5623    0.0000 C   0  0  0  0  0  0  0  0  0  0  0  0
    1.5000   -2.5981    0.0000 C   0  0  0  0  0  0  0  0  0  0  0  0
    2.6491   -1.6339    0.0000 C   0  0  0  0  0  0  0  0  0  0  0  0
    0.7500   -1.2990    0.0000 C   0  0  0  0  0  0  0  0  0  0  0  0
    1.5000    0.0000    0.0000 C   0  0  0  0  0  0  0  0  0  0  0  0
    0.7500    1.2990    0.0000 C   0  0  0  0  0  0  0  0  0  0  0  0
    1.5000    2.5981    0.0000 C   0  0  0  0  0  0  0  0  0  0  0  0
    0.7500    3.8971    0.0000 O   0  0  0  0  0  0  0  0  0  0  0  0
    3.0000    2.5981    0.0000 N   0  0  0  0  0  0  0  0  0  0  0  0
    3.7500    1.2990    0.0000 C   0  0  0  0  0  0  0  0  0  0  0  0
    5.2500    1.2990    0.0000 C   0  0  0  0  0  0  0  0  0  0  0  0
    6.0000    2.5981    0.0000 O   0  0  0  0  0  0  0  0  0  0  0  0
    5.2500    3.8971    0.0000 C   0  0  0  0  0  0  0  0  0  0  0  0
    3.7500    3.8971    0.0000 C   0  0  0  0  0  0  0  0  0  0  0  0
   -0.7500    1.2990    0.0000 C   0  0  0  0  0  0  0  0  0  0  0  0
   -1.5000    0.0000    0.0000 C   0  0  0  0  0  0  0  0  0  0  0  0
   -0.7500   -1.2990    0.0000 C   0  0  0  0  0  0  0  0  0  0  0  0
   -1.5000   -2.5981    0.0000 C   0  0  0  0  0  0  0  0  0  0  0  0
   -3.0000   -2.5981    0.0000 O   0  0  0  0  0  0  0  0  0  0  0  0
   -0.7500   -3.8971    0.0000 C   0  0  0  0  0  0  0  0  0  0  0  0
    0.7500   -3.8971    0.0000 C   0  0  0  0  0  0  0  0  0  0  0  0
    1.2135   -5.3237    0.0000 N   0  0  0  0  0  0  0  0  0  0  0  0
    0.0000   -6.2054    0.0000 C   0  0  0  0  0  0  0  0  0  0  0  0
   -0.1568   -7.6972    0.0000 C   0  0  0  0  0  0  0  0  0  0  0  0
   -1.5271   -8.3073    0.0000 C   0  0  0  0  0  0  0  0  0  0  0  0
   -1.6839   -9.7990    0.0000 C   0  0  0  0  0  0  0  0  0  0  0  0
   -1.8407  -11.2908    0.0000 N   0  0  0  0  0  0  0  0  0  0  0  0
   -2.7406   -7.4256    0.0000 C   0  0  0  0  0  0  0  0  0  0  0  0
   -2.5838   -5.9338    0.0000 C   0  0  0  0  0  0  0  0  0  0  0  0
   -1.2135   -5.3237    0.0000 C   0  0  0  0  0  0  0  0  0  0  0  0
  1  2  1  0
  2  3  1  0
  2  4  1  0
  4  5  2  0
  5  6  1  0
  6  7  1  0
  7  8  2  0
  7  9  1  0
  9 10  1  0
 10 11  1  0
 11 12  1  0
 12 13  1  0
 13 14  1  0
  6 15  2  0
 15 16  1  0
 16 17  2  0
 17 18  1  0
 18 19  2  0
 18 20  1  0
 20 21  2  0
 21 22  1  0
 22 23  1  0
 23 24  2  0
 24 25  1  0
 25 26  1  0
 26 27  3  0
 25 28  2  0
 28 29  1  0
 29 30  2  0
 21  2  1  0
 30 23  1  0
 17  4  1  0
 30 20  1  0
 14  9  1  0
M  END
>  <Compound_ID>  (351) 
CHEMBL3901433

>  <Molecule Name>  (351) 
nan

>  <Molecular Weight>  (351) 
399.45

>  <AlogP>  (351) 
3.38

>  <Smiles>  (351) 
CC1(C)c2cc(C(=O)N3CCOCC3)ccc2C(=O)c2c1[nH]c1cc(C#N)ccc21

>  <Standard Type>  (351) 
IC50

>  <Standard Relation>  (351) 
'='

>  <Standard Units>  (351) 
nM

>  <Standard Value>  (351) 
30.13

>  <Assay ChEMBL ID>  (351) 
CHEMBL3887074

>  <Assay Description>  (351) 
Inhibition Assay: ALK-inhibiting activity was measured by following an activity of inhibiting phosphorylation by biotinylated peptide (EGPWLEEEEEAYGWMDF). For the detection of phosphorylation of the biotinylated peptide, time-resolved fluorescence measurement was performed using an anti-phosphorylated tyrosine antibody labeled with europium cryptate and streptavidin conjugated to XL665, i.e., an allophycocyanin derivative.

>  <BAO Format ID>  (351) 
BAO_0000357

>  <BAO Label>  (351) 
single protein format

>  <Assay Organism>  (351) 
Homo sapiens

>  <Target ChEMBL ID>  (351) 
CHEMBL4247

>  <Target Name>  (351) 
ALK tyrosine kinase receptor

>  <Target Organism>  (351) 
Homo sapiens

>  <Target Type>  (351) 
SINGLE PROTEIN

>  <Document ChEMBL ID>  (351) 
CHEMBL3886150

>  <Source Description>  (351) 
BindingDB Database

>  <Document Journal>  (351) 
nan

>  <Document Year>  (351) 
2015.0

>  <Active>  (351) 
1.0

>  <bits>  (351) 
<rdkit.DataStructs.cDataStructs.ExplicitBitVect object at 0x000002422F231700>

>  <Group>  (351) 
G2

$$$$

     RDKit          2D

 37 41  0  0  0  0  0  0  0  0999 V2000
    2.0524   12.7356    0.0000 C   0  0  0  0  0  0  0  0  0  0  0  0
    0.6259   13.1991    0.0000 C   0  0  0  0  0  0  0  0  0  0  0  0
   -0.4889   12.1954    0.0000 N   0  0  0  0  0  0  0  0  0  0  0  0
   -1.9561   12.5073    0.0000 C   0  0  0  0  0  0  0  0  0  0  0  0
   -2.7061   11.2082    0.0000 C   0  0  0  0  0  0  0  0  0  0  0  0
   -1.7024   10.0935    0.0000 C   0  0  0  0  0  0  0  0  0  0  0  0
   -2.0143    8.6263    0.0000 C   0  0  0  0  0  0  0  0  0  0  0  0
   -3.4408    8.1628    0.0000 C   0  0  0  0  0  0  0  0  0  0  0  0
   -3.7527    6.6955    0.0000 C   0  0  0  0  0  0  0  0  0  0  0  0
   -2.6380    5.6918    0.0000 C   0  0  0  0  0  0  0  0  0  0  0  0
   -2.9499    4.2246    0.0000 N   0  0  0  0  0  0  0  0  0  0  0  0
   -1.8351    3.2209    0.0000 C   0  0  0  0  0  0  0  0  0  0  0  0
   -0.4086    3.6844    0.0000 N   0  0  0  0  0  0  0  0  0  0  0  0
    0.7062    2.6807    0.0000 C   0  0  0  0  0  0  0  0  0  0  0  0
    2.1328    3.1443    0.0000 N   0  0  0  0  0  0  0  0  0  0  0  0
    2.4446    4.6115    0.0000 C   0  0  0  0  0  0  0  0  0  0  0  0
    1.3299    5.6152    0.0000 C   0  0  0  0  0  0  0  0  0  0  0  0
    1.6418    7.0824    0.0000 C   0  0  0  0  0  0  0  0  0  0  0  0
    3.0684    7.5459    0.0000 C   0  0  0  0  0  0  0  0  0  0  0  0
    4.1831    6.5422    0.0000 C   0  0  0  0  0  0  0  0  0  0  0  0
    3.8712    5.0750    0.0000 C   0  0  0  0  0  0  0  0  0  0  0  0
    4.9859    4.0713    0.0000 S   0  0  0  0  0  0  0  0  0  0  0  0
    3.9822    2.9566    0.0000 O   0  0  0  0  0  0  0  0  0  0  0  0
    5.9896    5.1860    0.0000 O   0  0  0  0  0  0  0  0  0  0  0  0
    6.1006    3.0676    0.0000 C   0  0  0  0  0  0  0  0  0  0  0  0
    5.7888    1.6004    0.0000 C   0  0  0  0  0  0  0  0  0  0  0  0
    7.5272    3.5312    0.0000 C   0  0  0  0  0  0  0  0  0  0  0  0
    0.3943    1.2135    0.0000 C   0  0  0  0  0  0  0  0  0  0  0  0
    1.2760    0.0000    0.0000 C   0  0  0  0  0  0  0  0  0  0  0  0
    2.7760    0.0000    0.0000 C   0  0  0  0  0  0  0  0  0  0  0  0
    0.3943   -1.2135    0.0000 N   0  0  0  0  0  0  0  0  0  0  0  0
   -1.0323   -0.7500    0.0000 N   0  0  0  0  0  0  0  0  0  0  0  0
   -1.0323    0.7500    0.0000 C   0  0  0  0  0  0  0  0  0  0  0  0
   -2.1470    1.7537    0.0000 N   0  0  0  0  0  0  0  0  0  0  0  0
   -1.2114    6.1554    0.0000 C   0  0  0  0  0  0  0  0  0  0  0  0
   -0.8995    7.6226    0.0000 C   0  0  0  0  0  0  0  0  0  0  0  0
   -0.3321   10.7036    0.0000 C   0  0  0  0  0  0  0  0  0  0  0  0
  1  2  1  0
  2  3  1  0
  3  4  1  0
  4  5  1  0
  5  6  1  0
  6  7  1  0
  7  8  2  0
  8  9  1  0
  9 10  2  0
 10 11  1  0
 11 12  1  0
 12 13  1  0
 13 14  2  0
 14 15  1  0
 15 16  1  0
 16 17  2  0
 17 18  1  0
 18 19  2  0
 19 20  1  0
 20 21  2  0
 21 22  1  0
 22 23  2  0
 22 24  2  0
 22 25  1  0
 25 26  1  0
 25 27  1  0
 14 28  1  0
 28 29  2  0
 29 30  1  0
 29 31  1  0
 31 32  1  0
 32 33  2  0
 33 34  1  0
 10 35  1  0
 35 36  2  0
  6 37  1  0
 37  3  1  0
 36  7  1  0
 34 12  2  0
 21 16  1  0
 33 28  1  0
M  END
>  <Compound_ID>  (352) 
CHEMBL3651872

>  <Molecule Name>  (352) 
nan

>  <Molecular Weight>  (352) 
519.68

>  <AlogP>  (352) 
5.14

>  <Smiles>  (352) 
CCN1CCC(c2ccc(Nc3nc(Nc4ccccc4S(=O)(=O)C(C)C)c4c(C)[nH]nc4n3)cc2)C1

>  <Standard Type>  (352) 
IC50

>  <Standard Relation>  (352) 
'='

>  <Standard Units>  (352) 
nM

>  <Standard Value>  (352) 
10.0

>  <Assay ChEMBL ID>  (352) 
CHEMBL3705165

>  <Assay Description>  (352) 
Enzyme Assay: The inhibition of ALK tyrosine kinase activity may be demonstrated using known methods, for example using the recombinant kinase domain of the ALK in analogy to the VEGF-R kinase assay described in J. Wood et al. Cancer Res. 60, 2178-2189 (2000).

>  <BAO Format ID>  (352) 
BAO_0000357

>  <BAO Label>  (352) 
single protein format

>  <Assay Organism>  (352) 
Homo sapiens

>  <Target ChEMBL ID>  (352) 
CHEMBL4247

>  <Target Name>  (352) 
ALK tyrosine kinase receptor

>  <Target Organism>  (352) 
Homo sapiens

>  <Target Type>  (352) 
SINGLE PROTEIN

>  <Document ChEMBL ID>  (352) 
CHEMBL3638924

>  <Source Description>  (352) 
BindingDB Database

>  <Document Journal>  (352) 
nan

>  <Document Year>  (352) 
2013.0

>  <Active>  (352) 
1.0

>  <bits>  (352) 
<rdkit.DataStructs.cDataStructs.ExplicitBitVect object at 0x000002422F233AE0>

>  <Group>  (352) 
G2

$$$$

     RDKit          2D

 40 44  0  0  0  0  0  0  0  0999 V2000
   -1.7110    5.9853    0.0000 C   0  0  0  0  0  0  0  0  0  0  0  0
   -0.2487    5.6515    0.0000 O   0  0  0  0  0  0  0  0  0  0  0  0
    0.1935    4.2182    0.0000 C   0  0  0  0  0  0  0  0  0  0  0  0
   -0.8268    3.1186    0.0000 C   0  0  0  0  0  0  0  0  0  0  0  0
   -0.3846    1.6852    0.0000 C   0  0  0  0  0  0  0  0  0  0  0  0
    1.0777    1.3515    0.0000 C   0  0  0  0  0  0  0  0  0  0  0  0
    2.0980    2.4510    0.0000 C   0  0  0  0  0  0  0  0  0  0  0  0
    1.6559    3.8844    0.0000 C   0  0  0  0  0  0  0  0  0  0  0  0
    2.6761    4.9840    0.0000 N   0  0  0  0  0  0  0  0  0  0  0  0
    4.1385    4.6502    0.0000 C   0  0  0  0  0  0  0  0  0  0  0  0
    4.5807    3.2168    0.0000 N   0  0  0  0  0  0  0  0  0  0  0  0
    6.0430    2.8830    0.0000 C   0  0  0  0  0  0  0  0  0  0  0  0
    7.0633    3.9826    0.0000 C   0  0  0  0  0  0  0  0  0  0  0  0
    8.5257    3.6488    0.0000 Cl  0  0  0  0  0  0  0  0  0  0  0  0
    6.6212    5.4160    0.0000 C   0  0  0  0  0  0  0  0  0  0  0  0
    7.6414    6.5156    0.0000 N   0  0  0  0  0  0  0  0  0  0  0  0
    7.1993    7.9489    0.0000 C   0  0  0  0  0  0  0  0  0  0  0  0
    8.2196    9.0485    0.0000 C   0  0  0  0  0  0  0  0  0  0  0  0
    7.7774   10.4819    0.0000 C   0  0  0  0  0  0  0  0  0  0  0  0
    6.3150   10.8156    0.0000 C   0  0  0  0  0  0  0  0  0  0  0  0
    5.8729   12.2490    0.0000 N   0  0  0  0  0  0  0  0  0  0  0  0
    6.8932   13.3486    0.0000 C   0  0  0  0  0  0  0  0  0  0  0  0
    6.4510   14.7819    0.0000 C   0  0  0  0  0  0  0  0  0  0  0  0
    4.9886   15.1157    0.0000 O   0  0  0  0  0  0  0  0  0  0  0  0
    3.9684   14.0161    0.0000 C   0  0  0  0  0  0  0  0  0  0  0  0
    4.4105   12.5828    0.0000 C   0  0  0  0  0  0  0  0  0  0  0  0
    5.2948    9.7161    0.0000 C   0  0  0  0  0  0  0  0  0  0  0  0
    5.7369    8.2827    0.0000 C   0  0  0  0  0  0  0  0  0  0  0  0
    5.1588    5.7498    0.0000 N   0  0  0  0  0  0  0  0  0  0  0  0
    1.7286    0.0000    0.0000 C   0  0  0  0  0  0  0  0  0  0  0  0
    1.0777   -1.3515    0.0000 C   0  0  0  0  0  0  0  0  0  0  0  0
   -0.3846   -1.6852    0.0000 N   0  0  0  0  0  0  0  0  0  0  0  0
   -0.7184   -3.1476    0.0000 C   0  0  0  0  0  0  0  0  0  0  0  0
   -2.1518   -3.5898    0.0000 C   0  0  0  0  0  0  0  0  0  0  0  0
   -3.2514   -2.5695    0.0000 O   0  0  0  0  0  0  0  0  0  0  0  0
   -2.4856   -5.0522    0.0000 N   0  0  0  0  0  0  0  0  0  0  0  0
   -3.9189   -5.4943    0.0000 C   0  0  0  0  0  0  0  0  0  0  0  0
   -1.3860   -6.0724    0.0000 C   0  0  0  0  0  0  0  0  0  0  0  0
   -1.5574   -0.7500    0.0000 C   0  0  0  0  0  0  0  0  0  0  0  0
   -1.5574    0.7500    0.0000 C   0  0  0  0  0  0  0  0  0  0  0  0
  1  2  1  0
  2  3  1  0
  3  4  2  0
  4  5  1  0
  5  6  2  0
  6  7  1  0
  7  8  2  0
  8  9  1  0
  9 10  1  0
 10 11  2  0
 11 12  1  0
 12 13  2  0
 13 14  1  0
 13 15  1  0
 15 16  1  0
 16 17  1  0
 17 18  2  0
 18 19  1  0
 19 20  2  0
 20 21  1  0
 21 22  1  0
 22 23  1  0
 23 24  1  0
 24 25  1  0
 25 26  1  0
 20 27  1  0
 27 28  2  0
 15 29  2  0
  6 30  1  0
 30 31  1  0
 31 32  1  0
 32 33  1  0
 33 34  1  0
 34 35  2  0
 34 36  1  0
 36 37  1  0
 36 38  1  0
 32 39  1  0
 39 40  1  0
  8  3  1  0
 29 10  1  0
 40  5  1  0
 28 17  1  0
 26 21  1  0
M  END
>  <Compound_ID>  (353) 
CHEMBL1642259

>  <Molecule Name>  (353) 
nan

>  <Molecular Weight>  (353) 
566.11

>  <AlogP>  (353) 
3.95

>  <Smiles>  (353) 
COc1cc2c(cc1Nc1ncc(Cl)c(Nc3ccc(N4CCOCC4)cc3)n1)CCN(CC(=O)N(C)C)CC2

>  <Standard Type>  (353) 
IC50

>  <Standard Relation>  (353) 
'='

>  <Standard Units>  (353) 
nM

>  <Standard Value>  (353) 
49.0

>  <Assay ChEMBL ID>  (353) 
CHEMBL1648480

>  <Assay Description>  (353) 
Inhibition of ALK

>  <BAO Format ID>  (353) 
BAO_0000357

>  <BAO Label>  (353) 
single protein format

>  <Assay Organism>  (353) 
None

>  <Target ChEMBL ID>  (353) 
CHEMBL4247

>  <Target Name>  (353) 
ALK tyrosine kinase receptor

>  <Target Organism>  (353) 
Homo sapiens

>  <Target Type>  (353) 
SINGLE PROTEIN

>  <Document ChEMBL ID>  (353) 
CHEMBL1641404

>  <Source Description>  (353) 
Scientific Literature

>  <Document Journal>  (353) 
Bioorg Med Chem Lett

>  <Document Year>  (353) 
2011.0

>  <Active>  (353) 
1.0

>  <bits>  (353) 
<rdkit.DataStructs.cDataStructs.ExplicitBitVect object at 0x000002422F233840>

>  <Group>  (353) 
G2

$$$$

     RDKit          2D

 37 42  0  0  0  0  0  0  0  0999 V2000
   -6.8516   -6.6578    0.0000 C   0  0  0  0  0  0  0  0  0  0  0  0
   -5.6381   -7.5395    0.0000 C   0  0  0  0  0  0  0  0  0  0  0  0
   -4.2677   -6.9294    0.0000 C   0  0  0  0  0  0  0  0  0  0  0  0
   -4.1110   -5.4376    0.0000 C   0  0  0  0  0  0  0  0  0  0  0  0
   -2.7406   -4.8275    0.0000 C   0  0  0  0  0  0  0  0  0  0  0  0
   -1.5271   -5.7092    0.0000 C   0  0  0  0  0  0  0  0  0  0  0  0
   -1.6839   -7.2010    0.0000 C   0  0  0  0  0  0  0  0  0  0  0  0
   -3.0542   -7.8111    0.0000 C   0  0  0  0  0  0  0  0  0  0  0  0
   -3.2110   -9.3029    0.0000 N   0  0  0  0  0  0  0  0  0  0  0  0
   -4.5813   -9.9130    0.0000 C   0  0  0  0  0  0  0  0  0  0  0  0
   -4.7381  -11.4047    0.0000 C   0  0  0  0  0  0  0  0  0  0  0  0
   -3.5246  -12.2864    0.0000 N   0  0  0  0  0  0  0  0  0  0  0  0
   -3.6814  -13.7782    0.0000 C   0  0  0  0  0  0  0  0  0  0  0  0
   -5.0517  -14.3883    0.0000 C   0  0  0  0  0  0  0  0  0  0  0  0
   -5.6618  -13.0180    0.0000 C   0  0  0  0  0  0  0  0  0  0  0  0
   -7.1536  -12.8612    0.0000 O   0  0  0  0  0  0  0  0  0  0  0  0
   -4.4416  -15.7586    0.0000 C   0  0  0  0  0  0  0  0  0  0  0  0
   -5.8119  -16.3687    0.0000 O   0  0  0  0  0  0  0  0  0  0  0  0
   -6.4220  -14.9984    0.0000 C   0  0  0  0  0  0  0  0  0  0  0  0
   -2.1543  -11.6763    0.0000 C   0  0  0  0  0  0  0  0  0  0  0  0
   -1.9975  -10.1845    0.0000 C   0  0  0  0  0  0  0  0  0  0  0  0
   -0.1568   -5.0991    0.0000 C   0  0  0  0  0  0  0  0  0  0  0  0
    1.3396   -4.9944    0.0000 C   0  0  0  0  0  0  0  0  0  0  0  0
    0.2061   -6.5545    0.0000 C   0  0  0  0  0  0  0  0  0  0  0  0
   -0.0000   -3.6073    0.0000 C   0  0  0  0  0  0  0  0  0  0  0  0
    1.2135   -2.7256    0.0000 N   0  0  0  0  0  0  0  0  0  0  0  0
    0.7500   -1.2990    0.0000 C   0  0  0  0  0  0  0  0  0  0  0  0
    1.5000    0.0000    0.0000 C   0  0  0  0  0  0  0  0  0  0  0  0
    0.7500    1.2990    0.0000 C   0  0  0  0  0  0  0  0  0  0  0  0
    1.5000    2.5981    0.0000 C   0  0  0  0  0  0  0  0  0  0  0  0
    2.2500    3.8971    0.0000 N   0  0  0  0  0  0  0  0  0  0  0  0
   -0.7500    1.2990    0.0000 C   0  0  0  0  0  0  0  0  0  0  0  0
   -1.5000    0.0000    0.0000 C   0  0  0  0  0  0  0  0  0  0  0  0
   -0.7500   -1.2990    0.0000 C   0  0  0  0  0  0  0  0  0  0  0  0
   -1.2135   -2.7256    0.0000 C   0  0  0  0  0  0  0  0  0  0  0  0
   -2.5838   -3.3357    0.0000 C   0  0  0  0  0  0  0  0  0  0  0  0
   -3.7974   -2.4540    0.0000 O   0  0  0  0  0  0  0  0  0  0  0  0
  1  2  1  0
  2  3  1  0
  3  4  2  0
  4  5  1  0
  5  6  2  0
  6  7  1  0
  7  8  2  0
  8  9  1  0
  9 10  1  0
 10 11  1  0
 11 12  1  0
 12 13  1  0
 13 14  1  0
 14 15  1  0
 15 16  1  0
 14 17  1  0
 17 18  1  0
 18 19  1  0
 12 20  1  0
 20 21  1  0
  6 22  1  0
 22 23  1  0
 22 24  1  0
 22 25  1  0
 25 26  1  0
 26 27  1  0
 27 28  2  0
 28 29  1  0
 29 30  1  0
 30 31  3  0
 29 32  2  0
 32 33  1  0
 33 34  2  0
 34 35  1  0
 35 36  1  0
 36 37  2  0
  8  3  1  0
 21  9  1  0
 35 25  2  0
 36  5  1  0
 19 14  1  0
 34 27  1  0
M  END
>  <Compound_ID>  (354) 
CHEMBL3736021

>  <Molecule Name>  (354) 
nan

>  <Molecular Weight>  (354) 
498.63

>  <AlogP>  (354) 
3.60

>  <Smiles>  (354) 
CCc1cc2c(cc1N1CCN(CC3(CO)COC3)CC1)C(C)(C)c1[nH]c3cc(C#N)ccc3c1C2=O

>  <Standard Type>  (354) 
IC50

>  <Standard Relation>  (354) 
'='

>  <Standard Units>  (354) 
nM

>  <Standard Value>  (354) 
1.8

>  <Assay ChEMBL ID>  (354) 
CHEMBL3738494

>  <Assay Description>  (354) 
Inhibition of gatekeeper ALK L1196M mutant (unknown origin) using poly (Glu, Tyr)4:1 substrate incubated for 60 mins by ELISA

>  <BAO Format ID>  (354) 
BAO_0000357

>  <BAO Label>  (354) 
single protein format

>  <Assay Organism>  (354) 
Homo sapiens

>  <Target ChEMBL ID>  (354) 
CHEMBL4247

>  <Target Name>  (354) 
ALK tyrosine kinase receptor

>  <Target Organism>  (354) 
Homo sapiens

>  <Target Type>  (354) 
SINGLE PROTEIN

>  <Document ChEMBL ID>  (354) 
CHEMBL3734710

>  <Source Description>  (354) 
Scientific Literature

>  <Document Journal>  (354) 
Eur J Med Chem

>  <Document Year>  (354) 
2015.0

>  <Active>  (354) 
1.0

>  <bits>  (354) 
<rdkit.DataStructs.cDataStructs.ExplicitBitVect object at 0x000002422F233680>

>  <Group>  (354) 
G2

$$$$

     RDKit          2D

 40 44  0  0  0  0  0  0  0  0999 V2000
   -4.5577    0.2855    0.0000 C   0  0  0  0  0  0  0  0  0  0  0  0
   -3.4430   -0.7182    0.0000 O   0  0  0  0  0  0  0  0  0  0  0  0
   -3.7548   -2.1855    0.0000 C   0  0  0  0  0  0  0  0  0  0  0  0
   -5.1814   -2.6490    0.0000 C   0  0  0  0  0  0  0  0  0  0  0  0
   -5.4933   -4.1162    0.0000 C   0  0  0  0  0  0  0  0  0  0  0  0
   -4.3786   -5.1199    0.0000 C   0  0  0  0  0  0  0  0  0  0  0  0
   -2.9520   -4.6564    0.0000 C   0  0  0  0  0  0  0  0  0  0  0  0
   -2.6401   -3.1891    0.0000 C   0  0  0  0  0  0  0  0  0  0  0  0
   -1.2135   -2.7256    0.0000 C   0  0  0  0  0  0  0  0  0  0  0  0
   -0.0000   -3.6073    0.0000 C   0  0  0  0  0  0  0  0  0  0  0  0
    0.0000   -5.1073    0.0000 C   0  0  0  0  0  0  0  0  0  0  0  0
    1.2990   -5.8573    0.0000 N   0  0  0  0  0  0  0  0  0  0  0  0
   -1.2990   -5.8573    0.0000 O   0  0  0  0  0  0  0  0  0  0  0  0
    1.2135   -2.7256    0.0000 S   0  0  0  0  0  0  0  0  0  0  0  0
    0.7500   -1.2990    0.0000 C   0  0  0  0  0  0  0  0  0  0  0  0
    1.5000    0.0000    0.0000 C   0  0  0  0  0  0  0  0  0  0  0  0
    0.7500    1.2990    0.0000 N   0  0  0  0  0  0  0  0  0  0  0  0
   -0.7500    1.2990    0.0000 C   0  0  0  0  0  0  0  0  0  0  0  0
   -1.5000    2.5981    0.0000 N   0  0  0  0  0  0  0  0  0  0  0  0
   -0.7500    3.8971    0.0000 C   0  0  0  0  0  0  0  0  0  0  0  0
    0.7500    3.8971    0.0000 C   0  0  0  0  0  0  0  0  0  0  0  0
    1.5000    5.1962    0.0000 C   0  0  0  0  0  0  0  0  0  0  0  0
    3.0000    5.1962    0.0000 C   0  0  0  0  0  0  0  0  0  0  0  0
    0.7500    6.4952    0.0000 C   0  0  0  0  0  0  0  0  0  0  0  0
    1.5000    7.7942    0.0000 N   0  0  0  0  0  0  0  0  0  0  0  0
    0.8899    9.1645    0.0000 C   0  0  0  0  0  0  0  0  0  0  0  0
    2.0046   10.1682    0.0000 C   0  0  0  0  0  0  0  0  0  0  0  0
    3.3037    9.4182    0.0000 C   0  0  0  0  0  0  0  0  0  0  0  0
    4.6740   10.0283    0.0000 N   0  0  0  0  0  0  0  0  0  0  0  0
    5.8875    9.1467    0.0000 C   0  0  0  0  0  0  0  0  0  0  0  0
    4.8308   11.5201    0.0000 C   0  0  0  0  0  0  0  0  0  0  0  0
    2.9918    7.9510    0.0000 C   0  0  0  0  0  0  0  0  0  0  0  0
   -0.7500    6.4952    0.0000 C   0  0  0  0  0  0  0  0  0  0  0  0
   -1.5000    5.1962    0.0000 C   0  0  0  0  0  0  0  0  0  0  0  0
   -3.0000    5.1962    0.0000 O   0  0  0  0  0  0  0  0  0  0  0  0
   -3.7500    6.4952    0.0000 C   0  0  0  0  0  0  0  0  0  0  0  0
   -5.2500    6.4952    0.0000 C   0  0  0  0  0  0  0  0  0  0  0  0
   -3.0000    7.7942    0.0000 C   0  0  0  0  0  0  0  0  0  0  0  0
   -1.5000    0.0000    0.0000 N   0  0  0  0  0  0  0  0  0  0  0  0
   -0.7500   -1.2990    0.0000 C   0  0  0  0  0  0  0  0  0  0  0  0
  1  2  1  0
  2  3  1  0
  3  4  2  0
  4  5  1  0
  5  6  2  0
  6  7  1  0
  7  8  2  0
  8  9  1  0
  9 10  2  0
 10 11  1  0
 11 12  1  0
 11 13  2  0
 10 14  1  0
 14 15  1  0
 15 16  2  0
 16 17  1  0
 17 18  2  0
 18 19  1  0
 19 20  1  0
 20 21  2  0
 21 22  1  0
 22 23  1  0
 22 24  2  0
 24 25  1  0
 25 26  1  0
 26 27  1  0
 27 28  1  0
 28 29  1  0
 29 30  1  0
 29 31  1  0
 28 32  1  0
 24 33  1  0
 33 34  2  0
 34 35  1  0
 35 36  1  0
 36 37  1  0
 36 38  1  0
 18 39  1  0
 39 40  2  0
  8  3  1  0
 40  9  1  0
 40 15  1  0
 34 20  1  0
 32 25  1  0
M  END
>  <Compound_ID>  (355) 
CHEMBL3669141

>  <Molecule Name>  (355) 
nan

>  <Molecular Weight>  (355) 
560.72

>  <AlogP>  (355) 
5.45

>  <Smiles>  (355) 
COc1ccccc1-c1c(C(N)=O)sc2cnc(Nc3cc(C)c(N4CCC(N(C)C)C4)cc3OC(C)C)nc12

>  <Standard Type>  (355) 
IC50

>  <Standard Relation>  (355) 
'='

>  <Standard Units>  (355) 
nM

>  <Standard Value>  (355) 
2.0

>  <Assay ChEMBL ID>  (355) 
CHEMBL3705810

>  <Assay Description>  (355) 
In Vitro Inhibition Assay: The reagents used have the following composition: Enzyme buffer (EB): 50 mM HEPES (pH: 7.0) (Sigma H7523), 100 mM NaCl (Sigma S7653), NaN.sub.3 at 0.01% (Sigma S8032), BSA at 0.005% (Sigma A2153), 0.05 mM sodium orthovanadate (Calbiochem 567540). Detection buffer (DB): 50 mM HEPES (pH: 7.0), BSA at 0.1%, 0.8 M KF (Fluka 60239), 20 mM EDTA (Sigma E5134).The peptide used is the one described in Biochemistry, 2005, 44, 8533-8542; A-21-K(biotin)NH.sub.2, obtained from NeoMPS (reference SP081233). All the HTRF reagents Mab PT66-K (61T66KLB) and streptavidin-XL665 (610SAXLB), and the SEB reagent, are purchased from Cisbio.The test is carried out in a 384-well plate (Greiner 784076). The serial dilutions are carried out in pure DMSO, and then an intermediate one-in-three dilution in water is carried out, with 1 microliter of each concentration being distributed, all these operations being performed using the Zephyr apparatus (Caliper Life Sciences).

>  <BAO Format ID>  (355) 
BAO_0000357

>  <BAO Label>  (355) 
single protein format

>  <Assay Organism>  (355) 
Homo sapiens

>  <Target ChEMBL ID>  (355) 
CHEMBL4247

>  <Target Name>  (355) 
ALK tyrosine kinase receptor

>  <Target Organism>  (355) 
Homo sapiens

>  <Target Type>  (355) 
SINGLE PROTEIN

>  <Document ChEMBL ID>  (355) 
CHEMBL3639289

>  <Source Description>  (355) 
BindingDB Database

>  <Document Journal>  (355) 
nan

>  <Document Year>  (355) 
2015.0

>  <Active>  (355) 
1.0

>  <bits>  (355) 
<rdkit.DataStructs.cDataStructs.ExplicitBitVect object at 0x000002422F232260>

>  <Group>  (355) 
G2

$$$$

     RDKit          2D

 39 43  0  0  0  0  0  0  0  0999 V2000
   -4.5577    0.2855    0.0000 C   0  0  0  0  0  0  0  0  0  0  0  0
   -3.4430   -0.7182    0.0000 O   0  0  0  0  0  0  0  0  0  0  0  0
   -3.7548   -2.1855    0.0000 C   0  0  0  0  0  0  0  0  0  0  0  0
   -5.1814   -2.6490    0.0000 C   0  0  0  0  0  0  0  0  0  0  0  0
   -5.4933   -4.1162    0.0000 C   0  0  0  0  0  0  0  0  0  0  0  0
   -4.3786   -5.1199    0.0000 C   0  0  0  0  0  0  0  0  0  0  0  0
   -2.9520   -4.6564    0.0000 C   0  0  0  0  0  0  0  0  0  0  0  0
   -2.6401   -3.1891    0.0000 C   0  0  0  0  0  0  0  0  0  0  0  0
   -1.2135   -2.7256    0.0000 C   0  0  0  0  0  0  0  0  0  0  0  0
   -0.0000   -3.6073    0.0000 C   0  0  0  0  0  0  0  0  0  0  0  0
    0.0000   -5.1073    0.0000 C   0  0  0  0  0  0  0  0  0  0  0  0
    1.2990   -5.8573    0.0000 N   0  0  0  0  0  0  0  0  0  0  0  0
   -1.2990   -5.8573    0.0000 O   0  0  0  0  0  0  0  0  0  0  0  0
    1.2135   -2.7256    0.0000 S   0  0  0  0  0  0  0  0  0  0  0  0
    0.7500   -1.2990    0.0000 C   0  0  0  0  0  0  0  0  0  0  0  0
    1.5000    0.0000    0.0000 C   0  0  0  0  0  0  0  0  0  0  0  0
    0.7500    1.2990    0.0000 N   0  0  0  0  0  0  0  0  0  0  0  0
   -0.7500    1.2990    0.0000 C   0  0  0  0  0  0  0  0  0  0  0  0
   -1.5000    2.5981    0.0000 N   0  0  0  0  0  0  0  0  0  0  0  0
   -0.7500    3.8971    0.0000 C   0  0  0  0  0  0  0  0  0  0  0  0
    0.7500    3.8971    0.0000 C   0  0  0  0  0  0  0  0  0  0  0  0
    1.5000    5.1962    0.0000 C   0  0  0  0  0  0  0  0  0  0  0  0
    0.7500    6.4952    0.0000 C   0  0  0  0  0  0  0  0  0  0  0  0
    1.5000    7.7942    0.0000 C   0  0  0  0  0  0  0  0  0  0  0  0
    3.0000    7.7942    0.0000 N   0  0  0  0  0  0  0  0  0  0  0  0
    3.7500    6.4952    0.0000 C   0  0  0  0  0  0  0  0  0  0  0  0
    5.2500    6.4952    0.0000 C   0  0  0  0  0  0  0  0  0  0  0  0
    6.0000    7.7942    0.0000 N   0  0  0  0  0  0  0  0  0  0  0  0
    7.5000    7.7942    0.0000 C   0  0  0  0  0  0  0  0  0  0  0  0
    5.2500    9.0933    0.0000 C   0  0  0  0  0  0  0  0  0  0  0  0
    3.7500    9.0933    0.0000 C   0  0  0  0  0  0  0  0  0  0  0  0
   -0.7500    6.4952    0.0000 C   0  0  0  0  0  0  0  0  0  0  0  0
   -1.5000    5.1962    0.0000 C   0  0  0  0  0  0  0  0  0  0  0  0
   -3.0000    5.1962    0.0000 O   0  0  0  0  0  0  0  0  0  0  0  0
   -3.7500    6.4952    0.0000 C   0  0  0  0  0  0  0  0  0  0  0  0
   -5.2500    6.4952    0.0000 C   0  0  0  0  0  0  0  0  0  0  0  0
   -3.0000    7.7942    0.0000 C   0  0  0  0  0  0  0  0  0  0  0  0
   -1.5000    0.0000    0.0000 N   0  0  0  0  0  0  0  0  0  0  0  0
   -0.7500   -1.2990    0.0000 C   0  0  0  0  0  0  0  0  0  0  0  0
  1  2  1  0
  2  3  1  0
  3  4  2  0
  4  5  1  0
  5  6  2  0
  6  7  1  0
  7  8  2  0
  8  9  1  0
  9 10  2  0
 10 11  1  0
 11 12  1  0
 11 13  2  0
 10 14  1  0
 14 15  1  0
 15 16  2  0
 16 17  1  0
 17 18  2  0
 18 19  1  0
 19 20  1  0
 20 21  2  0
 21 22  1  0
 22 23  2  0
 23 24  1  0
 24 25  1  0
 25 26  1  0
 26 27  1  0
 27 28  1  0
 28 29  1  0
 28 30  1  0
 30 31  1  0
 23 32  1  0
 32 33  2  0
 33 34  1  0
 34 35  1  0
 35 36  1  0
 35 37  1  0
 18 38  1  0
 38 39  2  0
  8  3  1  0
 39  9  1  0
 39 15  1  0
 33 20  1  0
 31 25  1  0
M  END
>  <Compound_ID>  (356) 
CHEMBL3669146

>  <Molecule Name>  (356) 
nan

>  <Molecular Weight>  (356) 
546.7

>  <AlogP>  (356) 
4.74

>  <Smiles>  (356) 
COc1ccccc1-c1c(C(N)=O)sc2cnc(Nc3ccc(CN4CCN(C)CC4)cc3OC(C)C)nc12

>  <Standard Type>  (356) 
IC50

>  <Standard Relation>  (356) 
'='

>  <Standard Units>  (356) 
nM

>  <Standard Value>  (356) 
9.0

>  <Assay ChEMBL ID>  (356) 
CHEMBL3887055

>  <Assay Description>  (356) 
In Vitro Inhibition Assay: The reagents used have the following composition: Enzyme buffer (EB): 50 mM HEPES (pH: 7.0) (Sigma H7523), 100 mM NaCl (Sigma S7653), NaN.sub.3 at 0.01% (Sigma S8032), BSA at 0.005% (Sigma A2153), 0.05 mM sodium orthovanadate (Calbiochem 567540). Detection buffer (DB): 50 mM HEPES (pH: 7.0), BSA at 0.1%, 0.8 M KF (Fluka 60239), 20 mM EDTA (Sigma E5134).The peptide used is the one described in Biochemistry, 2005, 44, 8533-8542; A-21-K(biotin)NH.sub.2, obtained from NeoMPS (reference SP081233). All the HTRF reagents Mab PT66-K (61T66KLB) and streptavidin-XL665 (610SAXLB), and the SEB reagent, are purchased from Cisbio.The test is carried out in a 384-well plate (Greiner 784076). The serial dilutions are carried out in pure DMSO, and then an intermediate one-in-three dilution in water is carried out, with 1 microliter of each concentration being distributed, all these operations being performed using the Zephyr apparatus (Caliper Life Sciences).

>  <BAO Format ID>  (356) 
BAO_0000357

>  <BAO Label>  (356) 
single protein format

>  <Assay Organism>  (356) 
None

>  <Target ChEMBL ID>  (356) 
CHEMBL4247

>  <Target Name>  (356) 
ALK tyrosine kinase receptor

>  <Target Organism>  (356) 
Homo sapiens

>  <Target Type>  (356) 
SINGLE PROTEIN

>  <Document ChEMBL ID>  (356) 
CHEMBL3639289

>  <Source Description>  (356) 
BindingDB Database

>  <Document Journal>  (356) 
nan

>  <Document Year>  (356) 
2015.0

>  <Active>  (356) 
1.0

>  <bits>  (356) 
<rdkit.DataStructs.cDataStructs.ExplicitBitVect object at 0x000002422F231310>

>  <Group>  (356) 
G2

$$$$

     RDKit          2D

 42 46  0  0  0  0  0  0  0  0999 V2000
  -10.5759   -3.0359    0.0000 C   0  0  0  0  0  0  0  0  0  0  0  0
   -9.4612   -4.0396    0.0000 C   0  0  0  0  0  0  0  0  0  0  0  0
   -9.7730   -5.5068    0.0000 C   0  0  0  0  0  0  0  0  0  0  0  0
   -8.0346   -3.5760    0.0000 N   0  0  0  0  0  0  0  0  0  0  0  0
   -6.9199   -4.5797    0.0000 C   0  0  0  0  0  0  0  0  0  0  0  0
   -7.2317   -6.0469    0.0000 O   0  0  0  0  0  0  0  0  0  0  0  0
   -5.4933   -4.1162    0.0000 C   0  0  0  0  0  0  0  0  0  0  0  0
   -5.1814   -2.6490    0.0000 C   0  0  0  0  0  0  0  0  0  0  0  0
   -3.7548   -2.1855    0.0000 C   0  0  0  0  0  0  0  0  0  0  0  0
   -2.6401   -3.1891    0.0000 C   0  0  0  0  0  0  0  0  0  0  0  0
   -1.2135   -2.7256    0.0000 N   0  0  0  0  0  0  0  0  0  0  0  0
   -0.0000   -3.6073    0.0000 C   0  0  0  0  0  0  0  0  0  0  0  0
   -0.0000   -5.1073    0.0000 N   0  0  0  0  0  0  0  0  0  0  0  0
    1.2990   -5.8573    0.0000 C   0  0  0  0  0  0  0  0  0  0  0  0
    2.5981   -5.1073    0.0000 O   0  0  0  0  0  0  0  0  0  0  0  0
    1.2990   -7.3573    0.0000 C   0  0  0  0  0  0  0  0  0  0  0  0
   -0.0000   -8.1073    0.0000 C   0  0  0  0  0  0  0  0  0  0  0  0
   -0.0000   -9.6073    0.0000 C   0  0  0  0  0  0  0  0  0  0  0  0
    1.2990  -10.3573    0.0000 C   0  0  0  0  0  0  0  0  0  0  0  0
    2.5981   -9.6073    0.0000 C   0  0  0  0  0  0  0  0  0  0  0  0
    3.8971  -10.3573    0.0000 Cl  0  0  0  0  0  0  0  0  0  0  0  0
    2.5981   -8.1073    0.0000 C   0  0  0  0  0  0  0  0  0  0  0  0
    1.2135   -2.7256    0.0000 N   0  0  0  0  0  0  0  0  0  0  0  0
    0.7500   -1.2990    0.0000 C   0  0  0  0  0  0  0  0  0  0  0  0
    1.5000    0.0000    0.0000 C   0  0  0  0  0  0  0  0  0  0  0  0
    0.7500    1.2990    0.0000 C   0  0  0  0  0  0  0  0  0  0  0  0
   -0.7500    1.2990    0.0000 C   0  0  0  0  0  0  0  0  0  0  0  0
   -1.5000    2.5981    0.0000 C   0  0  0  0  0  0  0  0  0  0  0  0
   -0.7500    3.8971    0.0000 N   0  0  0  0  0  0  0  0  0  0  0  0
    0.7500    3.8971    0.0000 C   0  0  0  0  0  0  0  0  0  0  0  0
    1.5000    5.1962    0.0000 C   0  0  0  0  0  0  0  0  0  0  0  0
    0.7500    6.4952    0.0000 C   0  0  0  0  0  0  0  0  0  0  0  0
    1.5000    7.7942    0.0000 C   0  0  0  0  0  0  0  0  0  0  0  0
    0.2010    8.5442    0.0000 C   0  0  0  0  0  0  0  0  0  0  0  0
    2.7990    7.0442    0.0000 C   0  0  0  0  0  0  0  0  0  0  0  0
    2.2500    9.0933    0.0000 O   0  0  0  0  0  0  0  0  0  0  0  0
   -0.7500    6.4952    0.0000 C   0  0  0  0  0  0  0  0  0  0  0  0
   -1.5000    5.1962    0.0000 C   0  0  0  0  0  0  0  0  0  0  0  0
   -1.5000    0.0000    0.0000 C   0  0  0  0  0  0  0  0  0  0  0  0
   -0.7500   -1.2990    0.0000 C   0  0  0  0  0  0  0  0  0  0  0  0
   -2.9520   -4.6564    0.0000 C   0  0  0  0  0  0  0  0  0  0  0  0
   -4.3786   -5.1199    0.0000 C   0  0  0  0  0  0  0  0  0  0  0  0
  1  2  1  0
  2  3  1  0
  2  4  1  0
  4  5  1  0
  5  6  2  0
  7  5  1  1
  7  8  1  0
  8  9  1  0
  9 10  1  0
 10 11  1  1
 11 12  1  0
 12 13  2  0
 13 14  1  0
 14 15  2  0
 14 16  1  0
 16 17  2  0
 17 18  1  0
 18 19  2  0
 19 20  1  0
 20 21  1  0
 20 22  2  0
 12 23  1  0
 23 24  1  0
 24 25  2  0
 25 26  1  0
 26 27  2  0
 27 28  1  0
 28 29  1  0
 29 30  1  0
 30 31  1  0
 31 32  1  0
 32 33  1  0
 33 34  1  0
 33 35  1  0
 33 36  1  0
 32 37  1  0
 37 38  1  0
 27 39  1  0
 39 40  2  0
 10 41  1  0
 41 42  1  0
 42  7  1  0
 40 11  1  0
 22 16  1  0
 40 24  1  0
 38 29  1  0
M  END
>  <Compound_ID>  (357) 
CHEMBL2172302

>  <Molecule Name>  (357) 
nan

>  <Molecular Weight>  (357) 
594.2

>  <AlogP>  (357) 
5.60

>  <Smiles>  (357) 
CC(C)NC(=O)[C@H]1CC[C@@H](n2/c(=N/C(=O)c3cccc(Cl)c3)[nH]c3ccc(CN4CCC(C(C)(C)O)CC4)cc32)CC1

>  <Standard Type>  (357) 
IC50

>  <Standard Relation>  (357) 
'='

>  <Standard Units>  (357) 
nM

>  <Standard Value>  (357) 
2.0

>  <Assay ChEMBL ID>  (357) 
CHEMBL2176371

>  <Assay Description>  (357) 
Inhibition of ALK enzyme

>  <BAO Format ID>  (357) 
BAO_0000357

>  <BAO Label>  (357) 
single protein format

>  <Assay Organism>  (357) 
None

>  <Target ChEMBL ID>  (357) 
CHEMBL4247

>  <Target Name>  (357) 
ALK tyrosine kinase receptor

>  <Target Organism>  (357) 
Homo sapiens

>  <Target Type>  (357) 
SINGLE PROTEIN

>  <Document ChEMBL ID>  (357) 
CHEMBL2169770

>  <Source Description>  (357) 
Scientific Literature

>  <Document Journal>  (357) 
J Med Chem

>  <Document Year>  (357) 
2012.0

>  <Active>  (357) 
1.0

>  <bits>  (357) 
<rdkit.DataStructs.cDataStructs.ExplicitBitVect object at 0x000002422F230580>

>  <Group>  (357) 
G2

$$$$

     RDKit          2D

 33 36  0  0  0  0  0  0  0  0999 V2000
   -3.5898   -0.7046    0.0000 C   0  0  0  0  0  0  0  0  0  0  0  0
   -3.1476   -2.1380    0.0000 C   0  0  0  0  0  0  0  0  0  0  0  0
   -1.6852   -2.4718    0.0000 C   0  0  0  0  0  0  0  0  0  0  0  0
   -1.3515   -3.9342    0.0000 C   0  0  0  0  0  0  0  0  0  0  0  0
   -0.0000   -4.5850    0.0000 N   0  0  0  0  0  0  0  0  0  0  0  0
   -0.0000   -6.0850    0.0000 C   0  0  0  0  0  0  0  0  0  0  0  0
    1.3515   -3.9342    0.0000 C   0  0  0  0  0  0  0  0  0  0  0  0
    1.6852   -2.4718    0.0000 C   0  0  0  0  0  0  0  0  0  0  0  0
    0.7500   -1.2990    0.0000 C   0  0  0  0  0  0  0  0  0  0  0  0
    1.5000    0.0000    0.0000 C   0  0  0  0  0  0  0  0  0  0  0  0
    0.7500    1.2990    0.0000 C   0  0  0  0  0  0  0  0  0  0  0  0
   -0.7500    1.2990    0.0000 C   0  0  0  0  0  0  0  0  0  0  0  0
   -1.5000    2.5981    0.0000 N   0  0  0  0  0  0  0  0  0  0  0  0
   -0.7500    3.8971    0.0000 C   0  0  0  0  0  0  0  0  0  0  0  0
    0.7500    3.8971    0.0000 N   0  0  0  0  0  0  0  0  0  0  0  0
    1.5000    5.1962    0.0000 C   0  0  0  0  0  0  0  0  0  0  0  0
    0.7500    6.4952    0.0000 C   0  0  0  0  0  0  0  0  0  0  0  0
    1.5000    7.7942    0.0000 Cl  0  0  0  0  0  0  0  0  0  0  0  0
   -0.7500    6.4952    0.0000 C   0  0  0  0  0  0  0  0  0  0  0  0
   -1.5000    7.7942    0.0000 N   0  0  0  0  0  0  0  0  0  0  0  0
   -3.0000    7.7942    0.0000 C   0  0  0  0  0  0  0  0  0  0  0  0
   -3.7500    6.4952    0.0000 C   0  0  0  0  0  0  0  0  0  0  0  0
   -5.2500    6.4952    0.0000 C   0  0  0  0  0  0  0  0  0  0  0  0
   -6.0000    7.7942    0.0000 C   0  0  0  0  0  0  0  0  0  0  0  0
   -5.2500    9.0933    0.0000 C   0  0  0  0  0  0  0  0  0  0  0  0
   -3.7500    9.0933    0.0000 C   0  0  0  0  0  0  0  0  0  0  0  0
   -3.0000   10.3923    0.0000 C   0  0  0  0  0  0  0  0  0  0  0  0
   -1.5000   10.3923    0.0000 O   0  0  0  0  0  0  0  0  0  0  0  0
   -3.7500   11.6913    0.0000 N   0  0  0  0  0  0  0  0  0  0  0  0
   -3.0000   12.9904    0.0000 C   0  0  0  0  0  0  0  0  0  0  0  0
   -1.5000    5.1962    0.0000 N   0  0  0  0  0  0  0  0  0  0  0  0
   -1.5000    0.0000    0.0000 C   0  0  0  0  0  0  0  0  0  0  0  0
   -0.7500   -1.2990    0.0000 C   0  0  0  0  0  0  0  0  0  0  0  0
  1  2  1  0
  2  3  2  0
  3  4  1  0
  4  5  1  0
  5  6  1  0
  5  7  1  0
  7  8  1  0
  8  9  1  0
  9 10  2  0
 10 11  1  0
 11 12  2  0
 12 13  1  0
 13 14  1  0
 14 15  2  0
 15 16  1  0
 16 17  2  0
 17 18  1  0
 17 19  1  0
 19 20  1  0
 20 21  1  0
 21 22  2  0
 22 23  1  0
 23 24  2  0
 24 25  1  0
 25 26  2  0
 26 27  1  0
 27 28  2  0
 27 29  1  0
 29 30  1  0
 19 31  2  0
 12 32  1  0
 32 33  2  0
 33  3  1  0
 33  9  1  0
 31 14  1  0
 26 21  1  0
M  END
>  <Compound_ID>  (358) 
CHEMBL3263976

>  <Molecule Name>  (358) 
nan

>  <Molecular Weight>  (358) 
462.99

>  <AlogP>  (358) 
4.87

>  <Smiles>  (358) 
C/C=C1/CN(C)CCc2ccc(Nc3ncc(Cl)c(Nc4ccccc4C(=O)NC)n3)cc21

>  <Standard Type>  (358) 
IC50

>  <Standard Relation>  (358) 
'='

>  <Standard Units>  (358) 
nM

>  <Standard Value>  (358) 
13.0

>  <Assay ChEMBL ID>  (358) 
CHEMBL3267806

>  <Assay Description>  (358) 
Inhibition of purified recombinant ALK (unknown origin) after 60 mins by ELISA

>  <BAO Format ID>  (358) 
BAO_0000357

>  <BAO Label>  (358) 
single protein format

>  <Assay Organism>  (358) 
Homo sapiens

>  <Target ChEMBL ID>  (358) 
CHEMBL4247

>  <Target Name>  (358) 
ALK tyrosine kinase receptor

>  <Target Organism>  (358) 
Homo sapiens

>  <Target Type>  (358) 
SINGLE PROTEIN

>  <Document ChEMBL ID>  (358) 
CHEMBL3259567

>  <Source Description>  (358) 
Scientific Literature

>  <Document Journal>  (358) 
ACS Med Chem Lett

>  <Document Year>  (358) 
2014.0

>  <Active>  (358) 
1.0

>  <bits>  (358) 
<rdkit.DataStructs.cDataStructs.ExplicitBitVect object at 0x000002422F232F80>

>  <Group>  (358) 
G2

$$$$

     RDKit          2D

 39 42  0  0  0  0  0  0  0  0999 V2000
   -3.7500    3.8971    0.0000 C   0  0  0  0  0  0  0  0  0  0  0  0
   -2.2500    3.8971    0.0000 C   0  0  0  0  0  0  0  0  0  0  0  0
   -1.5000    5.1962    0.0000 C   0  0  0  0  0  0  0  0  0  0  0  0
   -1.5000    2.5981    0.0000 S   0  0  0  0  0  0  0  0  0  0  0  0
   -0.2010    3.3481    0.0000 O   0  0  0  0  0  0  0  0  0  0  0  0
   -2.7990    1.8481    0.0000 O   0  0  0  0  0  0  0  0  0  0  0  0
   -0.7500    1.2990    0.0000 C   0  0  0  0  0  0  0  0  0  0  0  0
   -1.5000   -0.0000    0.0000 C   0  0  0  0  0  0  0  0  0  0  0  0
   -0.7500   -1.2990    0.0000 C   0  0  0  0  0  0  0  0  0  0  0  0
    0.7500   -1.2990    0.0000 C   0  0  0  0  0  0  0  0  0  0  0  0
    1.5000   -0.0000    0.0000 C   0  0  0  0  0  0  0  0  0  0  0  0
    0.7500    1.2990    0.0000 C   0  0  0  0  0  0  0  0  0  0  0  0
    1.5000    2.5981    0.0000 N   0  0  0  0  0  0  0  0  0  0  0  0
    3.0000    2.5981    0.0000 C   0  0  0  0  0  0  0  0  0  0  0  0
    3.7500    1.2990    0.0000 N   0  0  0  0  0  0  0  0  0  0  0  0
    5.2500    1.2990    0.0000 C   0  0  0  0  0  0  0  0  0  0  0  0
    6.0000   -0.0000    0.0000 N   0  0  0  0  0  0  0  0  0  0  0  0
    7.5000   -0.0000    0.0000 C   0  0  0  0  0  0  0  0  0  0  0  0
    8.2500   -1.2990    0.0000 C   0  0  0  0  0  0  0  0  0  0  0  0
    9.7500   -1.2990    0.0000 C   0  0  0  0  0  0  0  0  0  0  0  0
   10.5000   -0.0000    0.0000 C   0  0  0  0  0  0  0  0  0  0  0  0
    9.7500    1.2990    0.0000 C   0  0  0  0  0  0  0  0  0  0  0  0
   10.5000    2.5981    0.0000 N   0  0  0  0  0  0  0  0  0  0  0  0
   12.0000    2.5981    0.0000 C   0  0  0  0  0  0  0  0  0  0  0  0
   12.7500    1.2990    0.0000 O   0  0  0  0  0  0  0  0  0  0  0  0
   12.7500    3.8971    0.0000 C   0  0  0  0  0  0  0  0  0  0  0  0
   14.2500    3.8971    0.0000 N   0  0  0  0  0  0  0  0  0  0  0  0
   15.0000    2.5981    0.0000 C   0  0  0  0  0  0  0  0  0  0  0  0
   16.5000    2.5981    0.0000 C   0  0  0  0  0  0  0  0  0  0  0  0
   17.2500    1.2990    0.0000 C   0  0  0  0  0  0  0  0  0  0  0  0
   17.2500    3.8971    0.0000 O   0  0  0  0  0  0  0  0  0  0  0  0
   16.5000    5.1962    0.0000 C   0  0  0  0  0  0  0  0  0  0  0  0
   17.2500    6.4952    0.0000 C   0  0  0  0  0  0  0  0  0  0  0  0
   15.0000    5.1962    0.0000 C   0  0  0  0  0  0  0  0  0  0  0  0
    8.2500    1.2990    0.0000 C   0  0  0  0  0  0  0  0  0  0  0  0
    6.0000    2.5981    0.0000 N   0  0  0  0  0  0  0  0  0  0  0  0
    5.2500    3.8971    0.0000 C   0  0  0  0  0  0  0  0  0  0  0  0
    3.7500    3.8971    0.0000 C   0  0  0  0  0  0  0  0  0  0  0  0
    3.0000    5.1962    0.0000 Cl  0  0  0  0  0  0  0  0  0  0  0  0
  1  2  1  0
  2  3  1  0
  2  4  1  0
  4  5  2  0
  4  6  2  0
  4  7  1  0
  7  8  2  0
  8  9  1  0
  9 10  2  0
 10 11  1  0
 11 12  2  0
 12 13  1  0
 13 14  1  0
 14 15  2  0
 15 16  1  0
 16 17  1  0
 17 18  1  0
 18 19  2  0
 19 20  1  0
 20 21  2  0
 21 22  1  0
 22 23  1  0
 23 24  1  0
 24 25  2  0
 24 26  1  0
 26 27  1  0
 27 28  1  0
 28 29  1  0
 29 30  1  6
 29 31  1  0
 31 32  1  0
 32 33  1  6
 32 34  1  0
 22 35  2  0
 16 36  2  0
 36 37  1  0
 37 38  2  0
 38 39  1  0
 12  7  1  0
 38 14  1  0
 35 18  1  0
 34 27  1  0
M  END
>  <Compound_ID>  (359) 
CHEMBL3357454

>  <Molecule Name>  (359) 
nan

>  <Molecular Weight>  (359) 
573.12

>  <AlogP>  (359) 
4.85

>  <Smiles>  (359) 
CC(C)S(=O)(=O)c1ccccc1Nc1nc(Nc2cccc(NC(=O)CN3C[C@@H](C)O[C@@H](C)C3)c2)ncc1Cl

>  <Standard Type>  (359) 
IC50

>  <Standard Relation>  (359) 
'='

>  <Standard Units>  (359) 
nM

>  <Standard Value>  (359) 
25.5

>  <Assay ChEMBL ID>  (359) 
CHEMBL3364272

>  <Assay Description>  (359) 
Inhibition of ALK (unknown origin) after 60 mins by ELISA

>  <BAO Format ID>  (359) 
BAO_0000357

>  <BAO Label>  (359) 
single protein format

>  <Assay Organism>  (359) 
Homo sapiens

>  <Target ChEMBL ID>  (359) 
CHEMBL4247

>  <Target Name>  (359) 
ALK tyrosine kinase receptor

>  <Target Organism>  (359) 
Homo sapiens

>  <Target Type>  (359) 
SINGLE PROTEIN

>  <Document ChEMBL ID>  (359) 
CHEMBL3351234

>  <Source Description>  (359) 
Scientific Literature

>  <Document Journal>  (359) 
J Med Chem

>  <Document Year>  (359) 
2015.0

>  <Active>  (359) 
1.0

>  <bits>  (359) 
<rdkit.DataStructs.cDataStructs.ExplicitBitVect object at 0x000002422F2321F0>

>  <Group>  (359) 
G2

$$$$

     RDKit          2D

 40 44  0  0  0  0  0  0  0  0999 V2000
   -1.7110    5.9853    0.0000 C   0  0  0  0  0  0  0  0  0  0  0  0
   -0.2487    5.6515    0.0000 O   0  0  0  0  0  0  0  0  0  0  0  0
    0.1935    4.2182    0.0000 C   0  0  0  0  0  0  0  0  0  0  0  0
   -0.8268    3.1186    0.0000 C   0  0  0  0  0  0  0  0  0  0  0  0
   -0.3846    1.6852    0.0000 C   0  0  0  0  0  0  0  0  0  0  0  0
    1.0777    1.3515    0.0000 C   0  0  0  0  0  0  0  0  0  0  0  0
    2.0980    2.4510    0.0000 C   0  0  0  0  0  0  0  0  0  0  0  0
    1.6559    3.8844    0.0000 C   0  0  0  0  0  0  0  0  0  0  0  0
    2.6761    4.9840    0.0000 N   0  0  0  0  0  0  0  0  0  0  0  0
    4.1385    4.6502    0.0000 C   0  0  0  0  0  0  0  0  0  0  0  0
    4.5807    3.2168    0.0000 N   0  0  0  0  0  0  0  0  0  0  0  0
    6.0430    2.8830    0.0000 C   0  0  0  0  0  0  0  0  0  0  0  0
    7.0633    3.9826    0.0000 C   0  0  0  0  0  0  0  0  0  0  0  0
    8.5257    3.6488    0.0000 Cl  0  0  0  0  0  0  0  0  0  0  0  0
    6.6212    5.4160    0.0000 C   0  0  0  0  0  0  0  0  0  0  0  0
    7.6414    6.5156    0.0000 N   0  0  0  0  0  0  0  0  0  0  0  0
    7.1993    7.9489    0.0000 C   0  0  0  0  0  0  0  0  0  0  0  0
    8.2196    9.0485    0.0000 C   0  0  0  0  0  0  0  0  0  0  0  0
    7.7774   10.4819    0.0000 C   0  0  0  0  0  0  0  0  0  0  0  0
    6.3150   10.8156    0.0000 C   0  0  0  0  0  0  0  0  0  0  0  0
    5.8729   12.2490    0.0000 N   0  0  0  0  0  0  0  0  0  0  0  0
    6.8932   13.3486    0.0000 C   0  0  0  0  0  0  0  0  0  0  0  0
    6.4510   14.7819    0.0000 C   0  0  0  0  0  0  0  0  0  0  0  0
    4.9886   15.1157    0.0000 O   0  0  0  0  0  0  0  0  0  0  0  0
    3.9684   14.0161    0.0000 C   0  0  0  0  0  0  0  0  0  0  0  0
    4.4105   12.5828    0.0000 C   0  0  0  0  0  0  0  0  0  0  0  0
    5.2948    9.7161    0.0000 C   0  0  0  0  0  0  0  0  0  0  0  0
    5.7369    8.2827    0.0000 C   0  0  0  0  0  0  0  0  0  0  0  0
    4.7167    7.1831    0.0000 O   0  0  0  0  0  0  0  0  0  0  0  0
    3.2543    7.5169    0.0000 C   0  0  0  0  0  0  0  0  0  0  0  0
    5.1588    5.7498    0.0000 N   0  0  0  0  0  0  0  0  0  0  0  0
    1.7286    0.0000    0.0000 C   0  0  0  0  0  0  0  0  0  0  0  0
    1.0777   -1.3515    0.0000 C   0  0  0  0  0  0  0  0  0  0  0  0
   -0.3846   -1.6852    0.0000 N   0  0  0  0  0  0  0  0  0  0  0  0
   -0.7184   -3.1476    0.0000 C   0  0  0  0  0  0  0  0  0  0  0  0
   -2.1518   -3.5898    0.0000 C   0  0  0  0  0  0  0  0  0  0  0  0
   -2.4856   -5.0522    0.0000 F   0  0  0  0  0  0  0  0  0  0  0  0
   -3.2514   -2.5695    0.0000 F   0  0  0  0  0  0  0  0  0  0  0  0
   -1.5574   -0.7500    0.0000 C   0  0  0  0  0  0  0  0  0  0  0  0
   -1.5574    0.7500    0.0000 C   0  0  0  0  0  0  0  0  0  0  0  0
  1  2  1  0
  2  3  1  0
  3  4  2  0
  4  5  1  0
  5  6  2  0
  6  7  1  0
  7  8  2  0
  8  9  1  0
  9 10  1  0
 10 11  2  0
 11 12  1  0
 12 13  2  0
 13 14  1  0
 13 15  1  0
 15 16  1  0
 16 17  1  0
 17 18  2  0
 18 19  1  0
 19 20  2  0
 20 21  1  0
 21 22  1  0
 22 23  1  0
 23 24  1  0
 24 25  1  0
 25 26  1  0
 20 27  1  0
 27 28  2  0
 28 29  1  0
 29 30  1  0
 15 31  2  0
  6 32  1  0
 32 33  1  0
 33 34  1  0
 34 35  1  0
 35 36  1  0
 36 37  1  0
 36 38  1  0
 34 39  1  0
 39 40  1  0
  8  3  1  0
 31 10  1  0
 40  5  1  0
 28 17  1  0
 26 21  1  0
M  END
>  <Compound_ID>  (360) 
CHEMBL1642256

>  <Molecule Name>  (360) 
nan

>  <Molecular Weight>  (360) 
575.06

>  <AlogP>  (360) 
5.14

>  <Smiles>  (360) 
COc1cc2c(cc1Nc1ncc(Cl)c(Nc3ccc(N4CCOCC4)cc3OC)n1)CCN(CC(F)F)CC2

>  <Standard Type>  (360) 
IC50

>  <Standard Relation>  (360) 
'='

>  <Standard Units>  (360) 
nM

>  <Standard Value>  (360) 
58.0

>  <Assay ChEMBL ID>  (360) 
CHEMBL1648480

>  <Assay Description>  (360) 
Inhibition of ALK

>  <BAO Format ID>  (360) 
BAO_0000357

>  <BAO Label>  (360) 
single protein format

>  <Assay Organism>  (360) 
None

>  <Target ChEMBL ID>  (360) 
CHEMBL4247

>  <Target Name>  (360) 
ALK tyrosine kinase receptor

>  <Target Organism>  (360) 
Homo sapiens

>  <Target Type>  (360) 
SINGLE PROTEIN

>  <Document ChEMBL ID>  (360) 
CHEMBL1641404

>  <Source Description>  (360) 
Scientific Literature

>  <Document Journal>  (360) 
Bioorg Med Chem Lett

>  <Document Year>  (360) 
2011.0

>  <Active>  (360) 
1.0

>  <bits>  (360) 
<rdkit.DataStructs.cDataStructs.ExplicitBitVect object at 0x000002422F231E00>

>  <Group>  (360) 
G2

$$$$

     RDKit          2D

 39 42  0  0  0  0  0  0  0  0999 V2000
   -3.0000   -5.1962    0.0000 C   0  0  0  0  0  0  0  0  0  0  0  0
   -1.5000   -5.1962    0.0000 O   0  0  0  0  0  0  0  0  0  0  0  0
   -0.7500   -3.8971    0.0000 C   0  0  0  0  0  0  0  0  0  0  0  0
   -1.5000   -2.5981    0.0000 C   0  0  0  0  0  0  0  0  0  0  0  0
   -0.7500   -1.2990    0.0000 C   0  0  0  0  0  0  0  0  0  0  0  0
    0.7500   -1.2990    0.0000 C   0  0  0  0  0  0  0  0  0  0  0  0
    1.5000   -2.5981    0.0000 C   0  0  0  0  0  0  0  0  0  0  0  0
    0.7500   -3.8971    0.0000 C   0  0  0  0  0  0  0  0  0  0  0  0
    1.5000   -5.1962    0.0000 N   0  0  0  0  0  0  0  0  0  0  0  0
    0.7500   -6.4952    0.0000 C   0  0  0  0  0  0  0  0  0  0  0  0
   -0.7500   -6.4952    0.0000 N   0  0  0  0  0  0  0  0  0  0  0  0
   -1.5000   -7.7942    0.0000 C   0  0  0  0  0  0  0  0  0  0  0  0
   -0.7500   -9.0933    0.0000 C   0  0  0  0  0  0  0  0  0  0  0  0
   -1.5000  -10.3923    0.0000 Cl  0  0  0  0  0  0  0  0  0  0  0  0
    0.7500   -9.0933    0.0000 C   0  0  0  0  0  0  0  0  0  0  0  0
    1.5000  -10.3923    0.0000 N   0  0  0  0  0  0  0  0  0  0  0  0
    3.0000  -10.3923    0.0000 C   0  0  0  0  0  0  0  0  0  0  0  0
    3.7500   -9.0933    0.0000 C   0  0  0  0  0  0  0  0  0  0  0  0
    5.2500   -9.0933    0.0000 C   0  0  0  0  0  0  0  0  0  0  0  0
    6.0000  -10.3923    0.0000 C   0  0  0  0  0  0  0  0  0  0  0  0
    5.2500  -11.6913    0.0000 C   0  0  0  0  0  0  0  0  0  0  0  0
    3.7500  -11.6913    0.0000 C   0  0  0  0  0  0  0  0  0  0  0  0
    3.0000  -12.9904    0.0000 S   0  0  0  0  0  0  0  0  0  0  0  0
    1.7010  -12.2404    0.0000 O   0  0  0  0  0  0  0  0  0  0  0  0
    4.2990  -13.7404    0.0000 O   0  0  0  0  0  0  0  0  0  0  0  0
    2.2500  -14.2894    0.0000 C   0  0  0  0  0  0  0  0  0  0  0  0
    0.7500  -14.2894    0.0000 C   0  0  0  0  0  0  0  0  0  0  0  0
    3.0000  -15.5885    0.0000 C   0  0  0  0  0  0  0  0  0  0  0  0
    1.5000   -7.7942    0.0000 N   0  0  0  0  0  0  0  0  0  0  0  0
    1.5000    0.0000    0.0000 C   0  0  0  0  0  0  0  0  0  0  0  0
    0.7500    1.2990    0.0000 C   0  0  0  0  0  0  0  0  0  0  0  0
   -0.7500    1.2990    0.0000 N   0  0  0  0  0  0  0  0  0  0  0  0
   -1.5000    2.5981    0.0000 C   0  0  0  0  0  0  0  0  0  0  0  0
   -0.7500    3.8971    0.0000 C   0  0  0  0  0  0  0  0  0  0  0  0
    0.7500    3.8971    0.0000 O   0  0  0  0  0  0  0  0  0  0  0  0
   -1.5000    5.1962    0.0000 N   0  0  0  0  0  0  0  0  0  0  0  0
   -0.7500    6.4952    0.0000 C   0  0  0  0  0  0  0  0  0  0  0  0
   -3.0000    5.1962    0.0000 C   0  0  0  0  0  0  0  0  0  0  0  0
   -1.5000    0.0000    0.0000 C   0  0  0  0  0  0  0  0  0  0  0  0
  1  2  1  0
  2  3  1  0
  3  4  2  0
  4  5  1  0
  5  6  2  0
  6  7  1  0
  7  8  2  0
  8  9  1  0
  9 10  1  0
 10 11  2  0
 11 12  1  0
 12 13  2  0
 13 14  1  0
 13 15  1  0
 15 16  1  0
 16 17  1  0
 17 18  2  0
 18 19  1  0
 19 20  2  0
 20 21  1  0
 21 22  2  0
 22 23  1  0
 23 24  2  0
 23 25  2  0
 23 26  1  0
 26 27  1  0
 26 28  1  0
 15 29  2  0
  6 30  1  0
 30 31  1  0
 31 32  1  0
 32 33  1  0
 33 34  1  0
 34 35  2  0
 34 36  1  0
 36 37  1  0
 36 38  1  0
 32 39  1  0
  8  3  1  0
 29 10  1  0
 39  5  1  0
 22 17  1  0
M  END
>  <Compound_ID>  (361) 
CHEMBL4740616

>  <Molecule Name>  (361) 
nan

>  <Molecular Weight>  (361) 
573.12

>  <AlogP>  (361) 
4.25

>  <Smiles>  (361) 
COc1cc2c(cc1Nc1ncc(Cl)c(Nc3ccccc3S(=O)(=O)C(C)C)n1)CCN(CC(=O)N(C)C)C2

>  <Standard Type>  (361) 
IC50

>  <Standard Relation>  (361) 
'='

>  <Standard Units>  (361) 
nM

>  <Standard Value>  (361) 
3.0

>  <Assay ChEMBL ID>  (361) 
CHEMBL4716187

>  <Assay Description>  (361) 
Inhibition of ALK (unknown origin) using peptide substrate incubated for 30 mins in presence of ATP by fluorescence assay

>  <BAO Format ID>  (361) 
BAO_0000357

>  <BAO Label>  (361) 
single protein format

>  <Assay Organism>  (361) 
Homo sapiens

>  <Target ChEMBL ID>  (361) 
CHEMBL4247

>  <Target Name>  (361) 
ALK tyrosine kinase receptor

>  <Target Organism>  (361) 
Homo sapiens

>  <Target Type>  (361) 
SINGLE PROTEIN

>  <Document ChEMBL ID>  (361) 
CHEMBL4715694

>  <Source Description>  (361) 
Scientific Literature

>  <Document Journal>  (361) 
Bioorg Med Chem

>  <Document Year>  (361) 
2016.0

>  <Active>  (361) 
1.0

>  <bits>  (361) 
<rdkit.DataStructs.cDataStructs.ExplicitBitVect object at 0x000002422F231E70>

>  <Group>  (361) 
G2

$$$$

     RDKit          2D

 48 51  0  0  0  0  0  0  0  0999 V2000
    3.7500   -1.2990    0.0000 C   0  0  0  0  0  0  0  0  0  0  0  0
    3.0000    0.0000    0.0000 O   0  0  0  0  0  0  0  0  0  0  0  0
    1.5000    0.0000    0.0000 C   0  0  0  0  0  0  0  0  0  0  0  0
    0.7500   -1.2990    0.0000 C   0  0  0  0  0  0  0  0  0  0  0  0
   -0.7500   -1.2990    0.0000 C   0  0  0  0  0  0  0  0  0  0  0  0
   -1.5000    0.0000    0.0000 C   0  0  0  0  0  0  0  0  0  0  0  0
   -3.0000    0.0000    0.0000 N   0  0  0  0  0  0  0  0  0  0  0  0
   -3.7500    1.2990    0.0000 C   0  0  0  0  0  0  0  0  0  0  0  0
   -3.0000    2.5981    0.0000 O   0  0  0  0  0  0  0  0  0  0  0  0
   -5.2500    1.2990    0.0000 C   0  0  0  0  0  0  0  0  0  0  0  0
   -6.0000    2.5981    0.0000 C   0  0  0  0  0  0  0  0  0  0  0  0
   -6.0000    0.0000    0.0000 N   0  0  0  0  0  0  0  0  0  0  0  0
   -7.5000    0.0000    0.0000 C   0  0  0  0  0  0  0  0  0  0  0  0
   -8.2500    1.2990    0.0000 O   0  0  0  0  0  0  0  0  0  0  0  0
   -8.2500   -1.2990    0.0000 C   0  0  0  0  0  0  0  0  0  0  0  0
   -9.7500   -1.2990    0.0000 C   0  0  0  0  0  0  0  0  0  0  0  0
  -10.5000   -2.5981    0.0000 C   0  0  0  0  0  0  0  0  0  0  0  0
  -12.0000   -2.5981    0.0000 C   0  0  0  0  0  0  0  0  0  0  0  0
  -12.7500   -1.2990    0.0000 C   0  0  0  0  0  0  0  0  0  0  0  0
  -12.7500   -3.8971    0.0000 C   0  0  0  0  0  0  0  0  0  0  0  0
   -9.7500   -3.8971    0.0000 C   0  0  0  0  0  0  0  0  0  0  0  0
  -10.5000   -5.1962    0.0000 O   0  0  0  0  0  0  0  0  0  0  0  0
   -8.2500   -3.8971    0.0000 C   0  0  0  0  0  0  0  0  0  0  0  0
   -7.5000   -2.5981    0.0000 C   0  0  0  0  0  0  0  0  0  0  0  0
   -6.0000   -2.5981    0.0000 O   0  0  0  0  0  0  0  0  0  0  0  0
   -0.7500    1.2990    0.0000 C   0  0  0  0  0  0  0  0  0  0  0  0
    0.7500    1.2990    0.0000 C   0  0  0  0  0  0  0  0  0  0  0  0
    1.5000    2.5981    0.0000 N   0  0  0  0  0  0  0  0  0  0  0  0
    3.0000    2.5981    0.0000 C   0  0  0  0  0  0  0  0  0  0  0  0
    3.7500    1.2990    0.0000 N   0  0  0  0  0  0  0  0  0  0  0  0
    5.2500    1.2990    0.0000 C   0  0  0  0  0  0  0  0  0  0  0  0
    6.0000    2.5981    0.0000 C   0  0  0  0  0  0  0  0  0  0  0  0
    7.5000    2.5981    0.0000 Cl  0  0  0  0  0  0  0  0  0  0  0  0
    5.2500    3.8971    0.0000 C   0  0  0  0  0  0  0  0  0  0  0  0
    6.0000    5.1962    0.0000 N   0  0  0  0  0  0  0  0  0  0  0  0
    5.2500    6.4952    0.0000 C   0  0  0  0  0  0  0  0  0  0  0  0
    3.7500    6.4952    0.0000 C   0  0  0  0  0  0  0  0  0  0  0  0
    3.0000    7.7942    0.0000 C   0  0  0  0  0  0  0  0  0  0  0  0
    3.7500    9.0933    0.0000 C   0  0  0  0  0  0  0  0  0  0  0  0
    5.2500    9.0933    0.0000 C   0  0  0  0  0  0  0  0  0  0  0  0
    6.0000    7.7942    0.0000 C   0  0  0  0  0  0  0  0  0  0  0  0
    7.5000    7.7942    0.0000 S   0  0  0  0  0  0  0  0  0  0  0  0
    7.5000    6.2942    0.0000 O   0  0  0  0  0  0  0  0  0  0  0  0
    7.5000    9.2942    0.0000 O   0  0  0  0  0  0  0  0  0  0  0  0
    9.0000    7.7942    0.0000 C   0  0  0  0  0  0  0  0  0  0  0  0
    9.7500    9.0933    0.0000 C   0  0  0  0  0  0  0  0  0  0  0  0
    9.7500    6.4952    0.0000 C   0  0  0  0  0  0  0  0  0  0  0  0
    3.7500    3.8971    0.0000 N   0  0  0  0  0  0  0  0  0  0  0  0
  1  2  1  0
  2  3  1  0
  3  4  2  0
  4  5  1  0
  5  6  2  0
  6  7  1  0
  7  8  1  0
  8  9  2  0
  8 10  1  0
 10 11  1  0
 10 12  1  0
 12 13  1  0
 13 14  2  0
 13 15  1  0
 15 16  2  0
 16 17  1  0
 17 18  1  0
 18 19  1  0
 18 20  1  0
 17 21  2  0
 21 22  1  0
 21 23  1  0
 23 24  2  0
 24 25  1  0
  6 26  1  0
 26 27  2  0
 27 28  1  0
 28 29  1  0
 29 30  2  0
 30 31  1  0
 31 32  2  0
 32 33  1  0
 32 34  1  0
 34 35  1  0
 35 36  1  0
 36 37  2  0
 37 38  1  0
 38 39  2  0
 39 40  1  0
 40 41  2  0
 41 42  1  0
 42 43  2  0
 42 44  2  0
 42 45  1  0
 45 46  1  0
 45 47  1  0
 34 48  2  0
 27  3  1  0
 48 29  1  0
 24 15  1  0
 41 36  1  0
M  END
>  <Compound_ID>  (362) 
CHEMBL4172925

>  <Molecule Name>  (362) 
nan

>  <Molecular Weight>  (362) 
697.21

>  <AlogP>  (362) 
6.10

>  <Smiles>  (362) 
COc1ccc(NC(=O)C(C)NC(=O)c2cc(C(C)C)c(O)cc2O)cc1Nc1ncc(Cl)c(Nc2ccccc2S(=O)(=O)C(C)C)n1

>  <Standard Type>  (362) 
IC50

>  <Standard Relation>  (362) 
'='

>  <Standard Units>  (362) 
nM

>  <Standard Value>  (362) 
0.7

>  <Assay ChEMBL ID>  (362) 
CHEMBL4146207

>  <Assay Description>  (362) 
Inhibition of recombinant ALK (unknown origin) using poly (Glu,Tyr) 4:1 as substrate incubated for 60 mins by ELISA

>  <BAO Format ID>  (362) 
BAO_0000357

>  <BAO Label>  (362) 
single protein format

>  <Assay Organism>  (362) 
Homo sapiens

>  <Target ChEMBL ID>  (362) 
CHEMBL4247

>  <Target Name>  (362) 
ALK tyrosine kinase receptor

>  <Target Organism>  (362) 
Homo sapiens

>  <Target Type>  (362) 
SINGLE PROTEIN

>  <Document ChEMBL ID>  (362) 
CHEMBL4145454

>  <Source Description>  (362) 
Scientific Literature

>  <Document Journal>  (362) 
Eur J Med Chem

>  <Document Year>  (362) 
2018.0

>  <Active>  (362) 
1.0

>  <bits>  (362) 
<rdkit.DataStructs.cDataStructs.ExplicitBitVect object at 0x000002422F231D20>

>  <Group>  (362) 
G2

$$$$

     RDKit          2D

 38 42  0  0  0  0  0  0  0  0999 V2000
  -10.5759   -3.0359    0.0000 C   0  0  0  0  0  0  0  0  0  0  0  0
   -9.4612   -4.0396    0.0000 C   0  0  0  0  0  0  0  0  0  0  0  0
   -9.7730   -5.5068    0.0000 C   0  0  0  0  0  0  0  0  0  0  0  0
   -8.0346   -3.5760    0.0000 N   0  0  0  0  0  0  0  0  0  0  0  0
   -6.9199   -4.5797    0.0000 C   0  0  0  0  0  0  0  0  0  0  0  0
   -7.2317   -6.0469    0.0000 O   0  0  0  0  0  0  0  0  0  0  0  0
   -5.4933   -4.1162    0.0000 C   0  0  0  0  0  0  0  0  0  0  0  0
   -5.1814   -2.6490    0.0000 C   0  0  0  0  0  0  0  0  0  0  0  0
   -3.7548   -2.1855    0.0000 C   0  0  0  0  0  0  0  0  0  0  0  0
   -2.6401   -3.1891    0.0000 C   0  0  0  0  0  0  0  0  0  0  0  0
   -1.2135   -2.7256    0.0000 N   0  0  0  0  0  0  0  0  0  0  0  0
   -0.0000   -3.6073    0.0000 C   0  0  0  0  0  0  0  0  0  0  0  0
   -0.0000   -5.1073    0.0000 N   0  0  0  0  0  0  0  0  0  0  0  0
    1.2990   -5.8573    0.0000 C   0  0  0  0  0  0  0  0  0  0  0  0
    2.5981   -5.1073    0.0000 O   0  0  0  0  0  0  0  0  0  0  0  0
    1.2990   -7.3573    0.0000 C   0  0  0  0  0  0  0  0  0  0  0  0
   -0.0000   -8.1073    0.0000 C   0  0  0  0  0  0  0  0  0  0  0  0
   -0.0000   -9.6073    0.0000 C   0  0  0  0  0  0  0  0  0  0  0  0
    1.2990  -10.3573    0.0000 C   0  0  0  0  0  0  0  0  0  0  0  0
    1.2990  -11.8573    0.0000 F   0  0  0  0  0  0  0  0  0  0  0  0
    2.5981   -9.6073    0.0000 C   0  0  0  0  0  0  0  0  0  0  0  0
    2.5981   -8.1073    0.0000 C   0  0  0  0  0  0  0  0  0  0  0  0
    1.2135   -2.7256    0.0000 N   0  0  0  0  0  0  0  0  0  0  0  0
    0.7500   -1.2990    0.0000 C   0  0  0  0  0  0  0  0  0  0  0  0
    1.5000    0.0000    0.0000 C   0  0  0  0  0  0  0  0  0  0  0  0
    0.7500    1.2990    0.0000 C   0  0  0  0  0  0  0  0  0  0  0  0
   -0.7500    1.2990    0.0000 C   0  0  0  0  0  0  0  0  0  0  0  0
   -1.5000    2.5981    0.0000 O   0  0  0  0  0  0  0  0  0  0  0  0
   -0.7500    3.8971    0.0000 C   0  0  0  0  0  0  0  0  0  0  0  0
    0.7500    3.8971    0.0000 C   0  0  0  0  0  0  0  0  0  0  0  0
    1.5000    5.1962    0.0000 C   0  0  0  0  0  0  0  0  0  0  0  0
    0.7500    6.4952    0.0000 C   0  0  0  0  0  0  0  0  0  0  0  0
   -0.7500    6.4952    0.0000 C   0  0  0  0  0  0  0  0  0  0  0  0
   -1.5000    5.1962    0.0000 N   0  0  0  0  0  0  0  0  0  0  0  0
   -1.5000    0.0000    0.0000 C   0  0  0  0  0  0  0  0  0  0  0  0
   -0.7500   -1.2990    0.0000 C   0  0  0  0  0  0  0  0  0  0  0  0
   -2.9520   -4.6564    0.0000 C   0  0  0  0  0  0  0  0  0  0  0  0
   -4.3786   -5.1199    0.0000 C   0  0  0  0  0  0  0  0  0  0  0  0
  1  2  1  0
  2  3  1  0
  2  4  1  0
  4  5  1  0
  5  6  2  0
  7  5  1  1
  7  8  1  0
  8  9  1  0
  9 10  1  0
 10 11  1  1
 11 12  1  0
 12 13  2  0
 13 14  1  0
 14 15  2  0
 14 16  1  0
 16 17  2  0
 17 18  1  0
 18 19  2  0
 19 20  1  0
 19 21  1  0
 21 22  2  0
 12 23  1  0
 23 24  1  0
 24 25  2  0
 25 26  1  0
 26 27  2  0
 27 28  1  0
 28 29  1  0
 29 30  2  0
 30 31  1  0
 31 32  2  0
 32 33  1  0
 33 34  2  0
 27 35  1  0
 35 36  2  0
 10 37  1  0
 37 38  1  0
 38  7  1  0
 36 11  1  0
 22 16  1  0
 36 24  1  0
 34 29  1  0
M  END
>  <Compound_ID>  (363) 
CHEMBL2172337

>  <Molecule Name>  (363) 
nan

>  <Molecular Weight>  (363) 
515.59

>  <AlogP>  (363) 
5.29

>  <Smiles>  (363) 
CC(C)NC(=O)[C@H]1CC[C@@H](n2/c(=N/C(=O)c3ccc(F)cc3)[nH]c3ccc(Oc4ccccn4)cc32)CC1

>  <Standard Type>  (363) 
IC50

>  <Standard Relation>  (363) 
'='

>  <Standard Units>  (363) 
nM

>  <Standard Value>  (363) 
8.3

>  <Assay ChEMBL ID>  (363) 
CHEMBL2176371

>  <Assay Description>  (363) 
Inhibition of ALK enzyme

>  <BAO Format ID>  (363) 
BAO_0000357

>  <BAO Label>  (363) 
single protein format

>  <Assay Organism>  (363) 
None

>  <Target ChEMBL ID>  (363) 
CHEMBL4247

>  <Target Name>  (363) 
ALK tyrosine kinase receptor

>  <Target Organism>  (363) 
Homo sapiens

>  <Target Type>  (363) 
SINGLE PROTEIN

>  <Document ChEMBL ID>  (363) 
CHEMBL2169770

>  <Source Description>  (363) 
Scientific Literature

>  <Document Journal>  (363) 
J Med Chem

>  <Document Year>  (363) 
2012.0

>  <Active>  (363) 
1.0

>  <bits>  (363) 
<rdkit.DataStructs.cDataStructs.ExplicitBitVect object at 0x000002422F231BD0>

>  <Group>  (363) 
G2

$$$$

     RDKit          2D

 40 44  0  0  0  0  0  0  0  0999 V2000
   -7.7484   -7.0799    0.0000 C   0  0  0  0  0  0  0  0  0  0  0  0
   -6.5349   -7.9615    0.0000 C   0  0  0  0  0  0  0  0  0  0  0  0
   -5.1646   -7.3514    0.0000 N   0  0  0  0  0  0  0  0  0  0  0  0
   -5.0078   -5.8597    0.0000 C   0  0  0  0  0  0  0  0  0  0  0  0
   -3.6375   -5.2496    0.0000 C   0  0  0  0  0  0  0  0  0  0  0  0
   -2.4240   -6.1312    0.0000 C   0  0  0  0  0  0  0  0  0  0  0  0
   -1.0537   -5.5211    0.0000 C   0  0  0  0  0  0  0  0  0  0  0  0
   -0.7418   -4.0539    0.0000 C   0  0  0  0  0  0  0  0  0  0  0  0
    0.7500   -3.8971    0.0000 C   0  0  0  0  0  0  0  0  0  0  0  0
    1.5000   -2.5981    0.0000 N   0  0  0  0  0  0  0  0  0  0  0  0
    0.7500   -1.2990    0.0000 C   0  0  0  0  0  0  0  0  0  0  0  0
    1.5000    0.0000    0.0000 N   0  0  0  0  0  0  0  0  0  0  0  0
    0.7500    1.2990    0.0000 C   0  0  0  0  0  0  0  0  0  0  0  0
   -0.7500    1.2990    0.0000 C   0  0  0  0  0  0  0  0  0  0  0  0
   -1.7537    2.4138    0.0000 S   0  0  0  0  0  0  0  0  0  0  0  0
   -3.1240    1.8037    0.0000 C   0  0  0  0  0  0  0  0  0  0  0  0
   -4.4231    2.5537    0.0000 C   0  0  0  0  0  0  0  0  0  0  0  0
   -4.4231    4.0537    0.0000 N   0  0  0  0  0  0  0  0  0  0  0  0
   -5.7221    1.8037    0.0000 O   0  0  0  0  0  0  0  0  0  0  0  0
   -2.9672    0.3119    0.0000 C   0  0  0  0  0  0  0  0  0  0  0  0
   -4.0819   -0.6918    0.0000 C   0  0  0  0  0  0  0  0  0  0  0  0
   -5.5085   -0.2283    0.0000 C   0  0  0  0  0  0  0  0  0  0  0  0
   -6.6232   -1.2320    0.0000 C   0  0  0  0  0  0  0  0  0  0  0  0
   -6.3114   -2.6992    0.0000 C   0  0  0  0  0  0  0  0  0  0  0  0
   -4.8848   -3.1627    0.0000 C   0  0  0  0  0  0  0  0  0  0  0  0
   -3.7701   -2.1590    0.0000 C   0  0  0  0  0  0  0  0  0  0  0  0
   -2.3435   -2.6226    0.0000 O   0  0  0  0  0  0  0  0  0  0  0  0
   -1.2288   -1.6189    0.0000 C   0  0  0  0  0  0  0  0  0  0  0  0
   -0.1141   -0.6152    0.0000 F   0  0  0  0  0  0  0  0  0  0  0  0
   -0.2251   -2.7336    0.0000 F   0  0  0  0  0  0  0  0  0  0  0  0
   -2.2325   -0.5042    0.0000 F   0  0  0  0  0  0  0  0  0  0  0  0
   -1.5000    0.0000    0.0000 C   0  0  0  0  0  0  0  0  0  0  0  0
   -0.7500   -1.2990    0.0000 N   0  0  0  0  0  0  0  0  0  0  0  0
    1.3601   -5.2674    0.0000 N   0  0  0  0  0  0  0  0  0  0  0  0
    2.8273   -5.5793    0.0000 C   0  0  0  0  0  0  0  0  0  0  0  0
    3.2909   -7.0059    0.0000 C   0  0  0  0  0  0  0  0  0  0  0  0
    3.8310   -4.4646    0.0000 C   0  0  0  0  0  0  0  0  0  0  0  0
    0.2454   -6.2711    0.0000 N   0  0  0  0  0  0  0  0  0  0  0  0
   -2.5808   -7.6230    0.0000 C   0  0  0  0  0  0  0  0  0  0  0  0
   -3.9511   -8.2331    0.0000 C   0  0  0  0  0  0  0  0  0  0  0  0
  1  2  1  0
  2  3  1  0
  3  4  1  0
  4  5  1  0
  5  6  1  0
  6  7  1  0
  7  8  1  0
  8  9  2  0
  9 10  1  0
 10 11  1  0
 11 12  2  0
 12 13  1  0
 13 14  2  0
 14 15  1  0
 15 16  1  0
 16 17  1  0
 17 18  1  0
 17 19  2  0
 16 20  2  0
 20 21  1  0
 21 22  2  0
 22 23  1  0
 23 24  2  0
 24 25  1  0
 25 26  2  0
 26 27  1  0
 27 28  1  0
 28 29  1  0
 28 30  1  0
 28 31  1  0
 20 32  1  0
 32 33  2  0
  9 34  1  0
 34 35  1  0
 35 36  1  0
 35 37  1  0
 34 38  1  0
  6 39  1  0
 39 40  1  0
 40  3  1  0
 38  7  2  0
 33 11  1  0
 32 14  1  0
 26 21  1  0
M  END
>  <Compound_ID>  (364) 
CHEMBL3669142

>  <Molecule Name>  (364) 
nan

>  <Molecular Weight>  (364) 
573.65

>  <AlogP>  (364) 
6.08

>  <Smiles>  (364) 
CCN1CCC(c2cc(Nc3ncc4sc(C(N)=O)c(-c5ccccc5OC(F)(F)F)c4n3)n(C(C)C)n2)CC1

>  <Standard Type>  (364) 
IC50

>  <Standard Relation>  (364) 
'='

>  <Standard Units>  (364) 
nM

>  <Standard Value>  (364) 
0.5

>  <Assay ChEMBL ID>  (364) 
CHEMBL3705810

>  <Assay Description>  (364) 
In Vitro Inhibition Assay: The reagents used have the following composition: Enzyme buffer (EB): 50 mM HEPES (pH: 7.0) (Sigma H7523), 100 mM NaCl (Sigma S7653), NaN.sub.3 at 0.01% (Sigma S8032), BSA at 0.005% (Sigma A2153), 0.05 mM sodium orthovanadate (Calbiochem 567540). Detection buffer (DB): 50 mM HEPES (pH: 7.0), BSA at 0.1%, 0.8 M KF (Fluka 60239), 20 mM EDTA (Sigma E5134).The peptide used is the one described in Biochemistry, 2005, 44, 8533-8542; A-21-K(biotin)NH.sub.2, obtained from NeoMPS (reference SP081233). All the HTRF reagents Mab PT66-K (61T66KLB) and streptavidin-XL665 (610SAXLB), and the SEB reagent, are purchased from Cisbio.The test is carried out in a 384-well plate (Greiner 784076). The serial dilutions are carried out in pure DMSO, and then an intermediate one-in-three dilution in water is carried out, with 1 microliter of each concentration being distributed, all these operations being performed using the Zephyr apparatus (Caliper Life Sciences).

>  <BAO Format ID>  (364) 
BAO_0000357

>  <BAO Label>  (364) 
single protein format

>  <Assay Organism>  (364) 
Homo sapiens

>  <Target ChEMBL ID>  (364) 
CHEMBL4247

>  <Target Name>  (364) 
ALK tyrosine kinase receptor

>  <Target Organism>  (364) 
Homo sapiens

>  <Target Type>  (364) 
SINGLE PROTEIN

>  <Document ChEMBL ID>  (364) 
CHEMBL3639289

>  <Source Description>  (364) 
BindingDB Database

>  <Document Journal>  (364) 
nan

>  <Document Year>  (364) 
2015.0

>  <Active>  (364) 
1.0

>  <bits>  (364) 
<rdkit.DataStructs.cDataStructs.ExplicitBitVect object at 0x000002422F2318C0>

>  <Group>  (364) 
G2

$$$$

     RDKit          2D

 35 40  0  0  0  0  0  0  0  0999 V2000
   -6.8516   -6.6578    0.0000 C   0  0  0  0  0  0  0  0  0  0  0  0
   -5.6381   -7.5395    0.0000 C   0  0  0  0  0  0  0  0  0  0  0  0
   -4.2677   -6.9294    0.0000 C   0  0  0  0  0  0  0  0  0  0  0  0
   -4.1110   -5.4376    0.0000 C   0  0  0  0  0  0  0  0  0  0  0  0
   -2.7406   -4.8275    0.0000 C   0  0  0  0  0  0  0  0  0  0  0  0
   -1.5271   -5.7092    0.0000 C   0  0  0  0  0  0  0  0  0  0  0  0
   -1.6839   -7.2010    0.0000 C   0  0  0  0  0  0  0  0  0  0  0  0
   -3.0542   -7.8111    0.0000 C   0  0  0  0  0  0  0  0  0  0  0  0
   -3.2110   -9.3029    0.0000 C   0  0  0  0  0  0  0  0  0  0  0  0
   -2.0963  -10.3066    0.0000 C   0  0  0  0  0  0  0  0  0  0  0  0
   -2.7064  -11.6769    0.0000 N   0  0  0  0  0  0  0  0  0  0  0  0
   -4.1982  -11.5201    0.0000 N   0  0  0  0  0  0  0  0  0  0  0  0
   -5.2019  -12.6348    0.0000 C   0  0  0  0  0  0  0  0  0  0  0  0
   -6.6691  -12.3229    0.0000 C   0  0  0  0  0  0  0  0  0  0  0  0
   -7.6728  -13.4376    0.0000 C   0  0  0  0  0  0  0  0  0  0  0  0
   -7.2093  -14.8642    0.0000 O   0  0  0  0  0  0  0  0  0  0  0  0
   -5.7421  -15.1761    0.0000 C   0  0  0  0  0  0  0  0  0  0  0  0
   -4.7384  -14.0614    0.0000 C   0  0  0  0  0  0  0  0  0  0  0  0
   -4.5101  -10.0529    0.0000 C   0  0  0  0  0  0  0  0  0  0  0  0
   -0.1568   -5.0991    0.0000 C   0  0  0  0  0  0  0  0  0  0  0  0
    1.3396   -4.9944    0.0000 C   0  0  0  0  0  0  0  0  0  0  0  0
    0.2061   -6.5545    0.0000 C   0  0  0  0  0  0  0  0  0  0  0  0
   -0.0000   -3.6073    0.0000 C   0  0  0  0  0  0  0  0  0  0  0  0
    1.2135   -2.7256    0.0000 N   0  0  0  0  0  0  0  0  0  0  0  0
    0.7500   -1.2990    0.0000 C   0  0  0  0  0  0  0  0  0  0  0  0
    1.5000    0.0000    0.0000 C   0  0  0  0  0  0  0  0  0  0  0  0
    0.7500    1.2990    0.0000 C   0  0  0  0  0  0  0  0  0  0  0  0
    1.5000    2.5981    0.0000 C   0  0  0  0  0  0  0  0  0  0  0  0
    2.2500    3.8971    0.0000 N   0  0  0  0  0  0  0  0  0  0  0  0
   -0.7500    1.2990    0.0000 C   0  0  0  0  0  0  0  0  0  0  0  0
   -1.5000    0.0000    0.0000 C   0  0  0  0  0  0  0  0  0  0  0  0
   -0.7500   -1.2990    0.0000 C   0  0  0  0  0  0  0  0  0  0  0  0
   -1.2135   -2.7256    0.0000 C   0  0  0  0  0  0  0  0  0  0  0  0
   -2.5838   -3.3357    0.0000 C   0  0  0  0  0  0  0  0  0  0  0  0
   -3.7974   -2.4540    0.0000 O   0  0  0  0  0  0  0  0  0  0  0  0
  1  2  1  0
  2  3  1  0
  3  4  2  0
  4  5  1  0
  5  6  2  0
  6  7  1  0
  7  8  2  0
  8  9  1  0
  9 10  1  0
 10 11  2  0
 11 12  1  0
 12 13  1  0
 13 14  1  0
 14 15  1  0
 15 16  1  0
 16 17  1  0
 17 18  1  0
 12 19  1  0
  6 20  1  0
 20 21  1  0
 20 22  1  0
 20 23  1  0
 23 24  1  0
 24 25  1  0
 25 26  2  0
 26 27  1  0
 27 28  1  0
 28 29  3  0
 27 30  2  0
 30 31  1  0
 31 32  2  0
 32 33  1  0
 33 34  1  0
 34 35  2  0
  8  3  1  0
 19  9  2  0
 33 23  2  0
 34  5  1  0
 18 13  1  0
 32 25  1  0
M  END
>  <Compound_ID>  (365) 
CHEMBL3734844

>  <Molecule Name>  (365) 
nan

>  <Molecular Weight>  (365) 
464.57

>  <AlogP>  (365) 
5.69

>  <Smiles>  (365) 
CCc1cc2c(cc1-c1cnn(C3CCOCC3)c1)C(C)(C)c1[nH]c3cc(C#N)ccc3c1C2=O

>  <Standard Type>  (365) 
IC50

>  <Standard Relation>  (365) 
'='

>  <Standard Units>  (365) 
nM

>  <Standard Value>  (365) 
11.2

>  <Assay ChEMBL ID>  (365) 
CHEMBL3738493

>  <Assay Description>  (365) 
Inhibition of recombinant ALK (unknown origin) using poly (Glu, Tyr)4:1 substrate incubated for 60 mins by ELISA

>  <BAO Format ID>  (365) 
BAO_0000357

>  <BAO Label>  (365) 
single protein format

>  <Assay Organism>  (365) 
Homo sapiens

>  <Target ChEMBL ID>  (365) 
CHEMBL4247

>  <Target Name>  (365) 
ALK tyrosine kinase receptor

>  <Target Organism>  (365) 
Homo sapiens

>  <Target Type>  (365) 
SINGLE PROTEIN

>  <Document ChEMBL ID>  (365) 
CHEMBL3734710

>  <Source Description>  (365) 
Scientific Literature

>  <Document Journal>  (365) 
Eur J Med Chem

>  <Document Year>  (365) 
2015.0

>  <Active>  (365) 
1.0

>  <bits>  (365) 
<rdkit.DataStructs.cDataStructs.ExplicitBitVect object at 0x000002422F231770>

>  <Group>  (365) 
G2

$$$$

     RDKit          2D

 34 39  0  0  0  0  0  0  0  0999 V2000
    2.6491   -3.5623    0.0000 C   0  0  0  0  0  0  0  0  0  0  0  0
    1.5000   -2.5981    0.0000 C   0  0  0  0  0  0  0  0  0  0  0  0
    2.6491   -1.6339    0.0000 C   0  0  0  0  0  0  0  0  0  0  0  0
    0.7500   -1.2990    0.0000 C   0  0  0  0  0  0  0  0  0  0  0  0
    1.5000    0.0000    0.0000 C   0  0  0  0  0  0  0  0  0  0  0  0
    0.7500    1.2990    0.0000 C   0  0  0  0  0  0  0  0  0  0  0  0
    1.5000    2.5981    0.0000 N   0  0  0  0  0  0  0  0  0  0  0  0
    3.0000    2.5981    0.0000 C   0  0  0  0  0  0  0  0  0  0  0  0
    3.7500    3.8971    0.0000 C   0  0  0  0  0  0  0  0  0  0  0  0
    3.0000    5.1962    0.0000 N   0  0  0  0  0  0  0  0  0  0  0  0
    3.7500    6.4952    0.0000 C   0  0  0  0  0  0  0  0  0  0  0  0
    3.0000    7.7942    0.0000 O   0  0  0  0  0  0  0  0  0  0  0  0
    5.2500    6.4952    0.0000 C   0  0  0  0  0  0  0  0  0  0  0  0
    6.3107    5.4345    0.0000 C   0  0  0  0  0  0  0  0  0  0  0  0
    7.3713    6.4952    0.0000 N   0  0  0  0  0  0  0  0  0  0  0  0
    6.3107    7.5559    0.0000 C   0  0  0  0  0  0  0  0  0  0  0  0
    1.5000    5.1962    0.0000 C   0  0  0  0  0  0  0  0  0  0  0  0
    0.7500    3.8971    0.0000 C   0  0  0  0  0  0  0  0  0  0  0  0
   -0.7500    1.2990    0.0000 C   0  0  0  0  0  0  0  0  0  0  0  0
   -1.5000    0.0000    0.0000 C   0  0  0  0  0  0  0  0  0  0  0  0
   -0.7500   -1.2990    0.0000 C   0  0  0  0  0  0  0  0  0  0  0  0
   -1.5000   -2.5981    0.0000 C   0  0  0  0  0  0  0  0  0  0  0  0
   -3.0000   -2.5981    0.0000 O   0  0  0  0  0  0  0  0  0  0  0  0
   -0.7500   -3.8971    0.0000 C   0  0  0  0  0  0  0  0  0  0  0  0
    0.7500   -3.8971    0.0000 C   0  0  0  0  0  0  0  0  0  0  0  0
    1.2135   -5.3237    0.0000 N   0  0  0  0  0  0  0  0  0  0  0  0
    0.0000   -6.2054    0.0000 C   0  0  0  0  0  0  0  0  0  0  0  0
   -0.1568   -7.6972    0.0000 C   0  0  0  0  0  0  0  0  0  0  0  0
   -1.5271   -8.3073    0.0000 C   0  0  0  0  0  0  0  0  0  0  0  0
   -1.6839   -9.7990    0.0000 C   0  0  0  0  0  0  0  0  0  0  0  0
   -1.8407  -11.2908    0.0000 N   0  0  0  0  0  0  0  0  0  0  0  0
   -2.7406   -7.4256    0.0000 C   0  0  0  0  0  0  0  0  0  0  0  0
   -2.5838   -5.9338    0.0000 C   0  0  0  0  0  0  0  0  0  0  0  0
   -1.2135   -5.3237    0.0000 C   0  0  0  0  0  0  0  0  0  0  0  0
  1  2  1  0
  2  3  1  0
  2  4  1  0
  4  5  2  0
  5  6  1  0
  6  7  1  0
  7  8  1  0
  8  9  1  0
  9 10  1  0
 10 11  1  0
 11 12  2  0
 11 13  1  0
 13 14  1  0
 14 15  1  0
 15 16  1  0
 10 17  1  0
 17 18  1  0
  6 19  2  0
 19 20  1  0
 20 21  2  0
 21 22  1  0
 22 23  2  0
 22 24  1  0
 24 25  2  0
 25 26  1  0
 26 27  1  0
 27 28  2  0
 28 29  1  0
 29 30  1  0
 30 31  3  0
 29 32  2  0
 32 33  1  0
 33 34  2  0
 25  2  1  0
 34 27  1  0
 21  4  1  0
 34 24  1  0
 18  7  1  0
 16 13  1  0
M  END
>  <Compound_ID>  (366) 
CHEMBL3735113

>  <Molecule Name>  (366) 
nan

>  <Molecular Weight>  (366) 
453.55

>  <AlogP>  (366) 
2.78

>  <Smiles>  (366) 
CC1(C)c2cc(N3CCN(C(=O)C4CNC4)CC3)ccc2C(=O)c2c1[nH]c1cc(C#N)ccc21

>  <Standard Type>  (366) 
IC50

>  <Standard Relation>  (366) 
'='

>  <Standard Units>  (366) 
nM

>  <Standard Value>  (366) 
10.4

>  <Assay ChEMBL ID>  (366) 
CHEMBL3738493

>  <Assay Description>  (366) 
Inhibition of recombinant ALK (unknown origin) using poly (Glu, Tyr)4:1 substrate incubated for 60 mins by ELISA

>  <BAO Format ID>  (366) 
BAO_0000357

>  <BAO Label>  (366) 
single protein format

>  <Assay Organism>  (366) 
Homo sapiens

>  <Target ChEMBL ID>  (366) 
CHEMBL4247

>  <Target Name>  (366) 
ALK tyrosine kinase receptor

>  <Target Organism>  (366) 
Homo sapiens

>  <Target Type>  (366) 
SINGLE PROTEIN

>  <Document ChEMBL ID>  (366) 
CHEMBL3734710

>  <Source Description>  (366) 
Scientific Literature

>  <Document Journal>  (366) 
Eur J Med Chem

>  <Document Year>  (366) 
2015.0

>  <Active>  (366) 
1.0

>  <bits>  (366) 
<rdkit.DataStructs.cDataStructs.ExplicitBitVect object at 0x000002422F231690>

>  <Group>  (366) 
G2

$$$$

     RDKit          2D

 38 41  0  0  0  0  0  0  0  0999 V2000
  -10.5759   -3.0359    0.0000 C   0  0  0  0  0  0  0  0  0  0  0  0
   -9.4612   -4.0396    0.0000 C   0  0  0  0  0  0  0  0  0  0  0  0
   -9.7730   -5.5068    0.0000 C   0  0  0  0  0  0  0  0  0  0  0  0
   -8.0346   -3.5760    0.0000 N   0  0  0  0  0  0  0  0  0  0  0  0
   -6.9199   -4.5797    0.0000 C   0  0  0  0  0  0  0  0  0  0  0  0
   -7.2317   -6.0469    0.0000 O   0  0  0  0  0  0  0  0  0  0  0  0
   -5.4933   -4.1162    0.0000 C   0  0  0  0  0  0  0  0  0  0  0  0
   -5.1814   -2.6490    0.0000 C   0  0  0  0  0  0  0  0  0  0  0  0
   -3.7548   -2.1855    0.0000 C   0  0  0  0  0  0  0  0  0  0  0  0
   -2.6401   -3.1891    0.0000 C   0  0  0  0  0  0  0  0  0  0  0  0
   -1.2135   -2.7256    0.0000 N   0  0  0  0  0  0  0  0  0  0  0  0
   -0.0000   -3.6073    0.0000 C   0  0  0  0  0  0  0  0  0  0  0  0
   -0.0000   -5.1073    0.0000 N   0  0  0  0  0  0  0  0  0  0  0  0
    1.2990   -5.8573    0.0000 C   0  0  0  0  0  0  0  0  0  0  0  0
    2.5981   -5.1073    0.0000 O   0  0  0  0  0  0  0  0  0  0  0  0
    1.2990   -7.3573    0.0000 C   0  0  0  0  0  0  0  0  0  0  0  0
   -0.0000   -8.1073    0.0000 C   0  0  0  0  0  0  0  0  0  0  0  0
   -0.0000   -9.6073    0.0000 C   0  0  0  0  0  0  0  0  0  0  0  0
    1.2990  -10.3573    0.0000 C   0  0  0  0  0  0  0  0  0  0  0  0
    1.2990  -11.8573    0.0000 F   0  0  0  0  0  0  0  0  0  0  0  0
    2.5981   -9.6073    0.0000 C   0  0  0  0  0  0  0  0  0  0  0  0
    2.5981   -8.1073    0.0000 C   0  0  0  0  0  0  0  0  0  0  0  0
    1.2135   -2.7256    0.0000 N   0  0  0  0  0  0  0  0  0  0  0  0
    0.7500   -1.2990    0.0000 C   0  0  0  0  0  0  0  0  0  0  0  0
    1.5000    0.0000    0.0000 C   0  0  0  0  0  0  0  0  0  0  0  0
    0.7500    1.2990    0.0000 C   0  0  0  0  0  0  0  0  0  0  0  0
   -0.7500    1.2990    0.0000 C   0  0  0  0  0  0  0  0  0  0  0  0
   -1.5000    2.5981    0.0000 C   0  0  0  0  0  0  0  0  0  0  0  0
   -0.7500    3.8971    0.0000 N   0  0  0  0  0  0  0  0  0  0  0  0
   -1.5000    5.1962    0.0000 C   0  0  0  0  0  0  0  0  0  0  0  0
   -0.7500    6.4952    0.0000 C   0  0  0  0  0  0  0  0  0  0  0  0
    0.5490    5.7452    0.0000 C   0  0  0  0  0  0  0  0  0  0  0  0
   -2.0490    7.2452    0.0000 C   0  0  0  0  0  0  0  0  0  0  0  0
   -0.0000    7.7942    0.0000 O   0  0  0  0  0  0  0  0  0  0  0  0
   -1.5000    0.0000    0.0000 C   0  0  0  0  0  0  0  0  0  0  0  0
   -0.7500   -1.2990    0.0000 C   0  0  0  0  0  0  0  0  0  0  0  0
   -2.9520   -4.6564    0.0000 C   0  0  0  0  0  0  0  0  0  0  0  0
   -4.3786   -5.1199    0.0000 C   0  0  0  0  0  0  0  0  0  0  0  0
  1  2  1  0
  2  3  1  0
  2  4  1  0
  4  5  1  0
  5  6  2  0
  7  5  1  1
  7  8  1  0
  8  9  1  0
  9 10  1  0
 10 11  1  1
 11 12  1  0
 12 13  2  0
 13 14  1  0
 14 15  2  0
 14 16  1  0
 16 17  2  0
 17 18  1  0
 18 19  2  0
 19 20  1  0
 19 21  1  0
 21 22  2  0
 12 23  1  0
 23 24  1  0
 24 25  2  0
 25 26  1  0
 26 27  2  0
 27 28  1  0
 28 29  1  0
 29 30  1  0
 30 31  1  0
 31 32  1  0
 31 33  1  0
 31 34  1  0
 27 35  1  0
 35 36  2  0
 10 37  1  0
 37 38  1  0
 38  7  1  0
 36 11  1  0
 22 16  1  0
 36 24  1  0
M  END
>  <Compound_ID>  (367) 
CHEMBL2172311

>  <Molecule Name>  (367) 
nan

>  <Molecular Weight>  (367) 
523.65

>  <AlogP>  (367) 
3.97

>  <Smiles>  (367) 
CC(C)NC(=O)[C@H]1CC[C@@H](n2/c(=N/C(=O)c3ccc(F)cc3)[nH]c3ccc(CNCC(C)(C)O)cc32)CC1

>  <Standard Type>  (367) 
IC50

>  <Standard Relation>  (367) 
'='

>  <Standard Units>  (367) 
nM

>  <Standard Value>  (367) 
1.0

>  <Assay ChEMBL ID>  (367) 
CHEMBL2176371

>  <Assay Description>  (367) 
Inhibition of ALK enzyme

>  <BAO Format ID>  (367) 
BAO_0000357

>  <BAO Label>  (367) 
single protein format

>  <Assay Organism>  (367) 
None

>  <Target ChEMBL ID>  (367) 
CHEMBL4247

>  <Target Name>  (367) 
ALK tyrosine kinase receptor

>  <Target Organism>  (367) 
Homo sapiens

>  <Target Type>  (367) 
SINGLE PROTEIN

>  <Document ChEMBL ID>  (367) 
CHEMBL2169770

>  <Source Description>  (367) 
Scientific Literature

>  <Document Journal>  (367) 
J Med Chem

>  <Document Year>  (367) 
2012.0

>  <Active>  (367) 
1.0

>  <bits>  (367) 
<rdkit.DataStructs.cDataStructs.ExplicitBitVect object at 0x000002422F2315B0>

>  <Group>  (367) 
G2

$$$$

     RDKit          2D

 35 38  0  0  0  0  0  0  0  0999 V2000
    3.9786   -1.2990    0.0000 C   0  0  0  0  0  0  0  0  0  0  0  0
    3.2286   -0.0000    0.0000 C   0  0  0  0  0  0  0  0  0  0  0  0
    1.7286    0.0000    0.0000 N   0  0  0  0  0  0  0  0  0  0  0  0
    1.0777    1.3515    0.0000 C   0  0  0  0  0  0  0  0  0  0  0  0
    2.0130    2.5242    0.0000 O   0  0  0  0  0  0  0  0  0  0  0  0
   -0.3846    1.6852    0.0000 C   0  0  0  0  0  0  0  0  0  0  0  0
   -1.5574    0.7500    0.0000 C   0  0  0  0  0  0  0  0  0  0  0  0
   -1.5574   -0.7500    0.0000 C   0  0  0  0  0  0  0  0  0  0  0  0
   -0.3846   -1.6852    0.0000 C   0  0  0  0  0  0  0  0  0  0  0  0
   -0.8268   -3.1186    0.0000 C   0  0  0  0  0  0  0  0  0  0  0  0
    0.1935   -4.2182    0.0000 C   0  0  0  0  0  0  0  0  0  0  0  0
   -0.2487   -5.6515    0.0000 N   0  0  0  0  0  0  0  0  0  0  0  0
   -1.7110   -5.9853    0.0000 C   0  0  0  0  0  0  0  0  0  0  0  0
   -2.7313   -4.8857    0.0000 N   0  0  0  0  0  0  0  0  0  0  0  0
   -4.1937   -5.2195    0.0000 C   0  0  0  0  0  0  0  0  0  0  0  0
   -4.6358   -6.6529    0.0000 C   0  0  0  0  0  0  0  0  0  0  0  0
   -6.0982   -6.9867    0.0000 Cl  0  0  0  0  0  0  0  0  0  0  0  0
   -3.6156   -7.7525    0.0000 C   0  0  0  0  0  0  0  0  0  0  0  0
   -4.0577   -9.1858    0.0000 N   0  0  0  0  0  0  0  0  0  0  0  0
   -3.0374  -10.2854    0.0000 C   0  0  0  0  0  0  0  0  0  0  0  0
   -1.5750   -9.9516    0.0000 C   0  0  0  0  0  0  0  0  0  0  0  0
   -0.5548  -11.0512    0.0000 C   0  0  0  0  0  0  0  0  0  0  0  0
   -0.9969  -12.4845    0.0000 C   0  0  0  0  0  0  0  0  0  0  0  0
   -2.4593  -12.8183    0.0000 C   0  0  0  0  0  0  0  0  0  0  0  0
   -3.4796  -11.7187    0.0000 C   0  0  0  0  0  0  0  0  0  0  0  0
   -4.9420  -12.0525    0.0000 C   0  0  0  0  0  0  0  0  0  0  0  0
   -5.9622  -10.9530    0.0000 O   0  0  0  0  0  0  0  0  0  0  0  0
   -5.3841  -13.4859    0.0000 N   0  0  0  0  0  0  0  0  0  0  0  0
   -6.8465  -13.8197    0.0000 C   0  0  0  0  0  0  0  0  0  0  0  0
   -2.1532   -7.4187    0.0000 N   0  0  0  0  0  0  0  0  0  0  0  0
    1.6559   -3.8844    0.0000 C   0  0  0  0  0  0  0  0  0  0  0  0
    2.6761   -4.9840    0.0000 O   0  0  0  0  0  0  0  0  0  0  0  0
    4.1385   -4.6502    0.0000 C   0  0  0  0  0  0  0  0  0  0  0  0
    2.0980   -2.4510    0.0000 C   0  0  0  0  0  0  0  0  0  0  0  0
    1.0777   -1.3515    0.0000 C   0  0  0  0  0  0  0  0  0  0  0  0
  1  2  1  0
  2  3  1  0
  3  4  1  0
  4  5  2  0
  4  6  1  0
  6  7  1  0
  7  8  1  0
  8  9  1  0
  9 10  2  0
 10 11  1  0
 11 12  1  0
 12 13  1  0
 13 14  2  0
 14 15  1  0
 15 16  2  0
 16 17  1  0
 16 18  1  0
 18 19  1  0
 19 20  1  0
 20 21  2  0
 21 22  1  0
 22 23  2  0
 23 24  1  0
 24 25  2  0
 25 26  1  0
 26 27  2  0
 26 28  1  0
 28 29  1  0
 18 30  2  0
 11 31  2  0
 31 32  1  0
 32 33  1  0
 31 34  1  0
 34 35  2  0
 35  3  1  0
 35  9  1  0
 30 13  1  0
 25 20  1  0
M  END
>  <Compound_ID>  (368) 
CHEMBL2042828

>  <Molecule Name>  (368) 
nan

>  <Molecular Weight>  (368) 
494.98

>  <AlogP>  (368) 
4.67

>  <Smiles>  (368) 
CCN1C(=O)CCCc2cc(Nc3ncc(Cl)c(Nc4ccccc4C(=O)NC)n3)c(OC)cc21

>  <Standard Type>  (368) 
IC50

>  <Standard Relation>  (368) 
'='

>  <Standard Units>  (368) 
nM

>  <Standard Value>  (368) 
5.0

>  <Assay ChEMBL ID>  (368) 
CHEMBL2044751

>  <Assay Description>  (368) 
Inhibition of ALK

>  <BAO Format ID>  (368) 
BAO_0000357

>  <BAO Label>  (368) 
single protein format

>  <Assay Organism>  (368) 
None

>  <Target ChEMBL ID>  (368) 
CHEMBL4247

>  <Target Name>  (368) 
ALK tyrosine kinase receptor

>  <Target Organism>  (368) 
Homo sapiens

>  <Target Type>  (368) 
SINGLE PROTEIN

>  <Document ChEMBL ID>  (368) 
CHEMBL2040771

>  <Source Description>  (368) 
Scientific Literature

>  <Document Journal>  (368) 
ACS Med Chem Lett

>  <Document Year>  (368) 
2010.0

>  <Active>  (368) 
1.0

>  <bits>  (368) 
<rdkit.DataStructs.cDataStructs.ExplicitBitVect object at 0x000002422F2314D0>

>  <Group>  (368) 
G2

$$$$

     RDKit          2D

 37 40  0  0  0  0  0  0  0  0999 V2000
   -3.0000   -5.1962    0.0000 C   0  0  0  0  0  0  0  0  0  0  0  0
   -1.5000   -5.1962    0.0000 O   0  0  0  0  0  0  0  0  0  0  0  0
   -0.7500   -3.8971    0.0000 C   0  0  0  0  0  0  0  0  0  0  0  0
   -1.5000   -2.5981    0.0000 C   0  0  0  0  0  0  0  0  0  0  0  0
   -0.7500   -1.2990    0.0000 C   0  0  0  0  0  0  0  0  0  0  0  0
    0.7500   -1.2990    0.0000 C   0  0  0  0  0  0  0  0  0  0  0  0
    1.5000   -2.5981    0.0000 C   0  0  0  0  0  0  0  0  0  0  0  0
    0.7500   -3.8971    0.0000 C   0  0  0  0  0  0  0  0  0  0  0  0
    1.5000   -5.1962    0.0000 N   0  0  0  0  0  0  0  0  0  0  0  0
    0.7500   -6.4952    0.0000 C   0  0  0  0  0  0  0  0  0  0  0  0
   -0.7500   -6.4952    0.0000 N   0  0  0  0  0  0  0  0  0  0  0  0
   -1.5000   -7.7942    0.0000 C   0  0  0  0  0  0  0  0  0  0  0  0
   -0.7500   -9.0933    0.0000 C   0  0  0  0  0  0  0  0  0  0  0  0
   -1.5000  -10.3923    0.0000 Cl  0  0  0  0  0  0  0  0  0  0  0  0
    0.7500   -9.0933    0.0000 C   0  0  0  0  0  0  0  0  0  0  0  0
    1.5000  -10.3923    0.0000 N   0  0  0  0  0  0  0  0  0  0  0  0
    3.0000  -10.3923    0.0000 C   0  0  0  0  0  0  0  0  0  0  0  0
    3.7500   -9.0933    0.0000 C   0  0  0  0  0  0  0  0  0  0  0  0
    5.2500   -9.0933    0.0000 C   0  0  0  0  0  0  0  0  0  0  0  0
    6.0000  -10.3923    0.0000 C   0  0  0  0  0  0  0  0  0  0  0  0
    5.2500  -11.6913    0.0000 C   0  0  0  0  0  0  0  0  0  0  0  0
    3.7500  -11.6913    0.0000 C   0  0  0  0  0  0  0  0  0  0  0  0
    3.0000  -12.9904    0.0000 S   0  0  0  0  0  0  0  0  0  0  0  0
    1.7010  -12.2404    0.0000 O   0  0  0  0  0  0  0  0  0  0  0  0
    4.2990  -13.7404    0.0000 O   0  0  0  0  0  0  0  0  0  0  0  0
    2.2500  -14.2894    0.0000 C   0  0  0  0  0  0  0  0  0  0  0  0
    3.0000  -15.5885    0.0000 C   0  0  0  0  0  0  0  0  0  0  0  0
    0.7500  -14.2894    0.0000 C   0  0  0  0  0  0  0  0  0  0  0  0
    1.5000   -7.7942    0.0000 N   0  0  0  0  0  0  0  0  0  0  0  0
    1.5000    0.0000    0.0000 C   0  0  0  0  0  0  0  0  0  0  0  0
    0.7500    1.2990    0.0000 N   0  0  0  0  0  0  0  0  0  0  0  0
    1.5000    2.5981    0.0000 S   0  0  0  0  0  0  0  0  0  0  0  0
    2.2500    3.8971    0.0000 N   0  0  0  0  0  0  0  0  0  0  0  0
    0.2010    3.3481    0.0000 O   0  0  0  0  0  0  0  0  0  0  0  0
    2.7990    1.8481    0.0000 O   0  0  0  0  0  0  0  0  0  0  0  0
   -0.7500    1.2990    0.0000 C   0  0  0  0  0  0  0  0  0  0  0  0
   -1.5000    0.0000    0.0000 C   0  0  0  0  0  0  0  0  0  0  0  0
  1  2  1  0
  2  3  1  0
  3  4  2  0
  4  5  1  0
  5  6  2  0
  6  7  1  0
  7  8  2  0
  8  9  1  0
  9 10  1  0
 10 11  2  0
 11 12  1  0
 12 13  2  0
 13 14  1  0
 13 15  1  0
 15 16  1  0
 16 17  1  0
 17 18  2  0
 18 19  1  0
 19 20  2  0
 20 21  1  0
 21 22  2  0
 22 23  1  0
 23 24  2  0
 23 25  2  0
 23 26  1  0
 26 27  1  0
 26 28  1  0
 15 29  2  0
  6 30  1  0
 30 31  1  0
 31 32  1  0
 32 33  1  0
 32 34  2  0
 32 35  2  0
 31 36  1  0
 36 37  1  0
  8  3  1  0
 29 10  1  0
 37  5  1  0
 22 17  1  0
M  END
>  <Compound_ID>  (369) 
CHEMBL4747624

>  <Molecule Name>  (369) 
nan

>  <Molecular Weight>  (369) 
567.09

>  <AlogP>  (369) 
3.37

>  <Smiles>  (369) 
COc1cc2c(cc1Nc1ncc(Cl)c(Nc3ccccc3S(=O)(=O)C(C)C)n1)CN(S(N)(=O)=O)CC2

>  <Standard Type>  (369) 
IC50

>  <Standard Relation>  (369) 
'='

>  <Standard Units>  (369) 
nM

>  <Standard Value>  (369) 
50.0

>  <Assay ChEMBL ID>  (369) 
CHEMBL4716189

>  <Assay Description>  (369) 
Inhibition of crizotinib-resistant ALK L1196M mutant (unknown origin) using peptide substrate incubated for 30 mins in presence of ATP by fluorescence assay

>  <BAO Format ID>  (369) 
BAO_0000357

>  <BAO Label>  (369) 
single protein format

>  <Assay Organism>  (369) 
Homo sapiens

>  <Target ChEMBL ID>  (369) 
CHEMBL4247

>  <Target Name>  (369) 
ALK tyrosine kinase receptor

>  <Target Organism>  (369) 
Homo sapiens

>  <Target Type>  (369) 
SINGLE PROTEIN

>  <Document ChEMBL ID>  (369) 
CHEMBL4715694

>  <Source Description>  (369) 
Scientific Literature

>  <Document Journal>  (369) 
Bioorg Med Chem

>  <Document Year>  (369) 
2016.0

>  <Active>  (369) 
1.0

>  <bits>  (369) 
<rdkit.DataStructs.cDataStructs.ExplicitBitVect object at 0x000002422F231230>

>  <Group>  (369) 
G2

$$$$

     RDKit          2D

 45 50  0  0  0  0  0  0  0  0999 V2000
    3.0000    0.0000    0.0000 C   0  0  0  0  0  0  0  0  0  0  0  0
    1.5000    0.0000    0.0000 N   0  0  0  0  0  0  0  0  0  0  0  0
    0.7500   -1.2990    0.0000 C   0  0  0  0  0  0  0  0  0  0  0  0
   -0.7500   -1.2990    0.0000 C   0  0  0  0  0  0  0  0  0  0  0  0
   -1.5000    0.0000    0.0000 N   0  0  0  0  0  0  0  0  0  0  0  0
   -3.0000    0.0000    0.0000 C   0  0  0  0  0  0  0  0  0  0  0  0
   -3.7500    1.2990    0.0000 C   0  0  0  0  0  0  0  0  0  0  0  0
   -5.2500    1.2990    0.0000 C   0  0  0  0  0  0  0  0  0  0  0  0
   -6.0000    0.0000    0.0000 C   0  0  0  0  0  0  0  0  0  0  0  0
   -7.5000    0.0000    0.0000 N   0  0  0  0  0  0  0  0  0  0  0  0
   -8.2500    1.2990    0.0000 C   0  0  0  0  0  0  0  0  0  0  0  0
   -7.5000    2.5981    0.0000 O   0  0  0  0  0  0  0  0  0  0  0  0
   -9.7500    1.2990    0.0000 C   0  0  0  0  0  0  0  0  0  0  0  0
  -10.6317    0.0855    0.0000 C   0  0  0  0  0  0  0  0  0  0  0  0
  -12.0583    0.5490    0.0000 C   0  0  0  0  0  0  0  0  0  0  0  0
  -12.0583    2.0490    0.0000 C   0  0  0  0  0  0  0  0  0  0  0  0
  -10.6317    2.5126    0.0000 N   0  0  0  0  0  0  0  0  0  0  0  0
  -10.1682    3.9391    0.0000 C   0  0  0  0  0  0  0  0  0  0  0  0
   -8.7009    4.2510    0.0000 N   0  0  0  0  0  0  0  0  0  0  0  0
   -8.2374    5.6776    0.0000 C   0  0  0  0  0  0  0  0  0  0  0  0
   -6.7702    5.9895    0.0000 N   0  0  0  0  0  0  0  0  0  0  0  0
   -6.3067    7.4161    0.0000 C   0  0  0  0  0  0  0  0  0  0  0  0
   -4.8394    7.7279    0.0000 C   0  0  0  0  0  0  0  0  0  0  0  0
   -4.3759    9.1545    0.0000 C   0  0  0  0  0  0  0  0  0  0  0  0
   -2.9087    9.4664    0.0000 F   0  0  0  0  0  0  0  0  0  0  0  0
   -5.3796   10.2692    0.0000 C   0  0  0  0  0  0  0  0  0  0  0  0
   -6.8468    9.9574    0.0000 C   0  0  0  0  0  0  0  0  0  0  0  0
   -7.8505   11.0721    0.0000 F   0  0  0  0  0  0  0  0  0  0  0  0
   -7.3104    8.5308    0.0000 C   0  0  0  0  0  0  0  0  0  0  0  0
   -9.2411    6.7923    0.0000 N   0  0  0  0  0  0  0  0  0  0  0  0
  -10.7083    6.4805    0.0000 C   0  0  0  0  0  0  0  0  0  0  0  0
  -11.1718    5.0539    0.0000 C   0  0  0  0  0  0  0  0  0  0  0  0
  -12.6391    4.7420    0.0000 Cl  0  0  0  0  0  0  0  0  0  0  0  0
   -5.2500   -1.2990    0.0000 C   0  0  0  0  0  0  0  0  0  0  0  0
   -3.7500   -1.2990    0.0000 C   0  0  0  0  0  0  0  0  0  0  0  0
   -3.0000   -2.5981    0.0000 C   0  0  0  0  0  0  0  0  0  0  0  0
   -1.5000   -2.5981    0.0000 O   0  0  0  0  0  0  0  0  0  0  0  0
   -3.7500   -3.8971    0.0000 N   0  0  0  0  0  0  0  0  0  0  0  0
   -5.2500   -3.8971    0.0000 C   0  0  0  0  0  0  0  0  0  0  0  0
   -6.0000   -5.1962    0.0000 C   0  0  0  0  0  0  0  0  0  0  0  0
   -5.2500   -6.4952    0.0000 S   0  0  0  0  0  0  0  0  0  0  0  0
   -3.7500   -6.4952    0.0000 C   0  0  0  0  0  0  0  0  0  0  0  0
   -3.0000   -5.1962    0.0000 C   0  0  0  0  0  0  0  0  0  0  0  0
   -0.7500    1.2990    0.0000 C   0  0  0  0  0  0  0  0  0  0  0  0
    0.7500    1.2990    0.0000 C   0  0  0  0  0  0  0  0  0  0  0  0
  1  2  1  0
  2  3  1  0
  3  4  1  0
  4  5  1  0
  5  6  1  0
  6  7  2  0
  7  8  1  0
  8  9  2  0
  9 10  1  0
 10 11  1  0
 11 12  2  0
 13 11  1  6
 13 14  1  0
 14 15  1  0
 15 16  1  0
 16 17  1  0
 17 18  1  0
 18 19  2  0
 19 20  1  0
 20 21  1  0
 21 22  1  0
 22 23  2  0
 23 24  1  0
 24 25  1  0
 24 26  2  0
 26 27  1  0
 27 28  1  0
 27 29  2  0
 20 30  2  0
 30 31  1  0
 31 32  2  0
 32 33  1  0
  9 34  1  0
 34 35  2  0
 35 36  1  0
 36 37  2  0
 36 38  1  0
 38 39  1  0
 39 40  1  0
 40 41  1  0
 41 42  1  0
 42 43  1  0
  5 44  1  0
 44 45  1  0
 45  2  1  0
 35  6  1  0
 43 38  1  0
 17 13  1  0
 32 18  1  0
 29 22  1  0
M  END
>  <Compound_ID>  (370) 
CHEMBL4854103

>  <Molecule Name>  (370) 
nan

>  <Molecular Weight>  (370) 
657.19

>  <AlogP>  (370) 
4.70

>  <Smiles>  (370) 
CN1CCN(c2ccc(NC(=O)[C@@H]3CCCN3c3nc(Nc4cc(F)cc(F)c4)ncc3Cl)cc2C(=O)N2CCSCC2)CC1

>  <Standard Type>  (370) 
IC50

>  <Standard Relation>  (370) 
'='

>  <Standard Units>  (370) 
nM

>  <Standard Value>  (370) 
38.0

>  <Assay ChEMBL ID>  (370) 
CHEMBL4811215

>  <Assay Description>  (370) 
Inhibition of human ALK secondary L1196M mutant assessed as decreased enzymatic reactions measured after 1 hr by mobility shift assay

>  <BAO Format ID>  (370) 
BAO_0000357

>  <BAO Label>  (370) 
single protein format

>  <Assay Organism>  (370) 
Homo sapiens

>  <Target ChEMBL ID>  (370) 
CHEMBL4247

>  <Target Name>  (370) 
ALK tyrosine kinase receptor

>  <Target Organism>  (370) 
Homo sapiens

>  <Target Type>  (370) 
SINGLE PROTEIN

>  <Document ChEMBL ID>  (370) 
CHEMBL4808257

>  <Source Description>  (370) 
Scientific Literature

>  <Document Journal>  (370) 
Bioorg Med Chem

>  <Document Year>  (370) 
2021.0

>  <Active>  (370) 
1.0

>  <bits>  (370) 
<rdkit.DataStructs.cDataStructs.ExplicitBitVect object at 0x000002422F230F90>

>  <Group>  (370) 
G2

$$$$

     RDKit          2D

 33 36  0  0  0  0  0  0  0  0999 V2000
   -3.0000   -5.1962    0.0000 C   0  0  0  0  0  0  0  0  0  0  0  0
   -1.5000   -5.1962    0.0000 O   0  0  0  0  0  0  0  0  0  0  0  0
   -0.7500   -3.8971    0.0000 C   0  0  0  0  0  0  0  0  0  0  0  0
   -1.5000   -2.5981    0.0000 C   0  0  0  0  0  0  0  0  0  0  0  0
   -0.7500   -1.2990    0.0000 C   0  0  0  0  0  0  0  0  0  0  0  0
    0.7500   -1.2990    0.0000 C   0  0  0  0  0  0  0  0  0  0  0  0
    1.5000   -2.5981    0.0000 C   0  0  0  0  0  0  0  0  0  0  0  0
    0.7500   -3.8971    0.0000 C   0  0  0  0  0  0  0  0  0  0  0  0
    1.5000   -5.1962    0.0000 N   0  0  0  0  0  0  0  0  0  0  0  0
    0.7500   -6.4952    0.0000 C   0  0  0  0  0  0  0  0  0  0  0  0
   -0.7500   -6.4952    0.0000 N   0  0  0  0  0  0  0  0  0  0  0  0
   -1.5000   -7.7942    0.0000 C   0  0  0  0  0  0  0  0  0  0  0  0
   -0.7500   -9.0933    0.0000 C   0  0  0  0  0  0  0  0  0  0  0  0
   -1.5000  -10.3923    0.0000 Cl  0  0  0  0  0  0  0  0  0  0  0  0
    0.7500   -9.0933    0.0000 C   0  0  0  0  0  0  0  0  0  0  0  0
    1.5000  -10.3923    0.0000 N   0  0  0  0  0  0  0  0  0  0  0  0
    3.0000  -10.3923    0.0000 C   0  0  0  0  0  0  0  0  0  0  0  0
    3.7500   -9.0933    0.0000 C   0  0  0  0  0  0  0  0  0  0  0  0
    5.2500   -9.0933    0.0000 C   0  0  0  0  0  0  0  0  0  0  0  0
    6.0000  -10.3923    0.0000 C   0  0  0  0  0  0  0  0  0  0  0  0
    5.2500  -11.6913    0.0000 C   0  0  0  0  0  0  0  0  0  0  0  0
    3.7500  -11.6913    0.0000 C   0  0  0  0  0  0  0  0  0  0  0  0
    3.0000  -12.9904    0.0000 S   0  0  0  0  0  0  0  0  0  0  0  0
    1.7010  -12.2404    0.0000 O   0  0  0  0  0  0  0  0  0  0  0  0
    4.2990  -13.7404    0.0000 O   0  0  0  0  0  0  0  0  0  0  0  0
    2.2500  -14.2894    0.0000 C   0  0  0  0  0  0  0  0  0  0  0  0
    3.0000  -15.5885    0.0000 C   0  0  0  0  0  0  0  0  0  0  0  0
    0.7500  -14.2894    0.0000 C   0  0  0  0  0  0  0  0  0  0  0  0
    1.5000   -7.7942    0.0000 N   0  0  0  0  0  0  0  0  0  0  0  0
    1.5000    0.0000    0.0000 C   0  0  0  0  0  0  0  0  0  0  0  0
    0.7500    1.2990    0.0000 C   0  0  0  0  0  0  0  0  0  0  0  0
   -0.7500    1.2990    0.0000 N   0  0  0  0  0  0  0  0  0  0  0  0
   -1.5000    0.0000    0.0000 C   0  0  0  0  0  0  0  0  0  0  0  0
  1  2  1  0
  2  3  1  0
  3  4  2  0
  4  5  1  0
  5  6  2  0
  6  7  1  0
  7  8  2  0
  8  9  1  0
  9 10  1  0
 10 11  2  0
 11 12  1  0
 12 13  2  0
 13 14  1  0
 13 15  1  0
 15 16  1  0
 16 17  1  0
 17 18  2  0
 18 19  1  0
 19 20  2  0
 20 21  1  0
 21 22  2  0
 22 23  1  0
 23 24  2  0
 23 25  2  0
 23 26  1  0
 26 27  1  0
 26 28  1  0
 15 29  2  0
  6 30  1  0
 30 31  1  0
 31 32  1  0
 32 33  2  0
  8  3  1  0
 29 10  1  0
 33  5  1  0
 22 17  1  0
M  END
>  <Compound_ID>  (371) 
CHEMBL4777614

>  <Molecule Name>  (371) 
nan

>  <Molecular Weight>  (371) 
486.0

>  <AlogP>  (371) 
4.78

>  <Smiles>  (371) 
COc1cc2c(cc1Nc1ncc(Cl)c(Nc3ccccc3S(=O)(=O)C(C)C)n1)CCN=C2

>  <Standard Type>  (371) 
IC50

>  <Standard Relation>  (371) 
'='

>  <Standard Units>  (371) 
nM

>  <Standard Value>  (371) 
39.0

>  <Assay ChEMBL ID>  (371) 
CHEMBL4716189

>  <Assay Description>  (371) 
Inhibition of crizotinib-resistant ALK L1196M mutant (unknown origin) using peptide substrate incubated for 30 mins in presence of ATP by fluorescence assay

>  <BAO Format ID>  (371) 
BAO_0000357

>  <BAO Label>  (371) 
single protein format

>  <Assay Organism>  (371) 
Homo sapiens

>  <Target ChEMBL ID>  (371) 
CHEMBL4247

>  <Target Name>  (371) 
ALK tyrosine kinase receptor

>  <Target Organism>  (371) 
Homo sapiens

>  <Target Type>  (371) 
SINGLE PROTEIN

>  <Document ChEMBL ID>  (371) 
CHEMBL4715694

>  <Source Description>  (371) 
Scientific Literature

>  <Document Journal>  (371) 
Bioorg Med Chem

>  <Document Year>  (371) 
2016.0

>  <Active>  (371) 
1.0

>  <bits>  (371) 
<rdkit.DataStructs.cDataStructs.ExplicitBitVect object at 0x000002422F2309E0>

>  <Group>  (371) 
G2

$$$$

     RDKit          2D

 39 44  0  0  0  0  0  0  0  0999 V2000
   -2.0143    8.6263    0.0000 C   0  0  0  0  0  0  0  0  0  0  0  0
   -3.4408    8.1628    0.0000 O   0  0  0  0  0  0  0  0  0  0  0  0
   -3.7527    6.6955    0.0000 C   0  0  0  0  0  0  0  0  0  0  0  0
   -2.6380    5.6918    0.0000 C   0  0  0  0  0  0  0  0  0  0  0  0
   -2.9499    4.2246    0.0000 C   0  0  0  0  0  0  0  0  0  0  0  0
   -1.8351    3.2209    0.0000 N   0  0  0  0  0  0  0  0  0  0  0  0
   -0.4086    3.6844    0.0000 C   0  0  0  0  0  0  0  0  0  0  0  0
    0.7062    2.6807    0.0000 C   0  0  0  0  0  0  0  0  0  0  0  0
    0.3943    1.2135    0.0000 N   0  0  0  0  0  0  0  0  0  0  0  0
    1.2760    0.0000    0.0000 C   0  0  0  0  0  0  0  0  0  0  0  0
    0.3943   -1.2135    0.0000 C   0  0  0  0  0  0  0  0  0  0  0  0
   -1.0323   -0.7500    0.0000 C   0  0  0  0  0  0  0  0  0  0  0  0
   -1.0323    0.7500    0.0000 C   0  0  0  0  0  0  0  0  0  0  0  0
   -2.1470    1.7537    0.0000 C   0  0  0  0  0  0  0  0  0  0  0  0
   -4.3764    3.7611    0.0000 C   0  0  0  0  0  0  0  0  0  0  0  0
   -5.4912    4.7648    0.0000 C   0  0  0  0  0  0  0  0  0  0  0  0
   -5.1793    6.2320    0.0000 C   0  0  0  0  0  0  0  0  0  0  0  0
   -6.2940    7.2357    0.0000 N   0  0  0  0  0  0  0  0  0  0  0  0
   -7.7206    6.7722    0.0000 C   0  0  0  0  0  0  0  0  0  0  0  0
   -8.0325    5.3050    0.0000 N   0  0  0  0  0  0  0  0  0  0  0  0
   -9.4590    4.8414    0.0000 C   0  0  0  0  0  0  0  0  0  0  0  0
   -9.7709    3.3742    0.0000 C   0  0  0  0  0  0  0  0  0  0  0  0
   -8.6562    2.3705    0.0000 C   0  0  0  0  0  0  0  0  0  0  0  0
   -8.9681    0.9033    0.0000 C   0  0  0  0  0  0  0  0  0  0  0  0
  -10.3946    0.4398    0.0000 Cl  0  0  0  0  0  0  0  0  0  0  0  0
   -7.8533   -0.1004    0.0000 C   0  0  0  0  0  0  0  0  0  0  0  0
   -6.4268    0.3631    0.0000 C   0  0  0  0  0  0  0  0  0  0  0  0
   -6.1149    1.8303    0.0000 C   0  0  0  0  0  0  0  0  0  0  0  0
   -7.2296    2.8340    0.0000 C   0  0  0  0  0  0  0  0  0  0  0  0
   -6.9177    4.3013    0.0000 Cl  0  0  0  0  0  0  0  0  0  0  0  0
  -10.5738    5.8451    0.0000 C   0  0  0  0  0  0  0  0  0  0  0  0
  -12.0655    5.6883    0.0000 N   0  0  0  0  0  0  0  0  0  0  0  0
  -12.6756    7.0586    0.0000 C   0  0  0  0  0  0  0  0  0  0  0  0
  -11.5609    8.0623    0.0000 N   0  0  0  0  0  0  0  0  0  0  0  0
  -10.2619    7.3123    0.0000 C   0  0  0  0  0  0  0  0  0  0  0  0
   -8.8353    7.7759    0.0000 C   0  0  0  0  0  0  0  0  0  0  0  0
   -8.5234    9.2431    0.0000 C   0  0  0  0  0  0  0  0  0  0  0  0
   -7.0969    9.7066    0.0000 N   0  0  0  0  0  0  0  0  0  0  0  0
   -9.6382   10.2468    0.0000 O   0  0  0  0  0  0  0  0  0  0  0  0
  1  2  1  0
  2  3  1  0
  3  4  2  0
  4  5  1  0
  5  6  1  0
  6  7  1  0
  7  8  1  0
  8  9  1  0
  9 10  1  0
 10 11  1  0
 11 12  1  0
 12 13  1  0
 13 14  1  0
  5 15  2  0
 15 16  1  0
 16 17  2  0
 17 18  1  0
 18 19  1  0
 19 20  2  0
 20 21  1  0
 21 22  1  0
 22 23  1  0
 23 24  2  0
 24 25  1  0
 24 26  1  0
 26 27  2  0
 27 28  1  0
 28 29  2  0
 29 30  1  0
 21 31  2  0
 31 32  1  0
 32 33  2  0
 33 34  1  0
 34 35  1  0
 35 36  2  0
 36 37  1  0
 37 38  1  0
 37 39  2  0
 17  3  1  0
 36 19  1  0
 14  6  1  0
 29 23  1  0
 35 31  1  0
 13  9  1  0
M  END
>  <Compound_ID>  (372) 
CHEMBL3966854

>  <Molecule Name>  (372) 
nan

>  <Molecular Weight>  (372) 
566.49

>  <AlogP>  (372) 
4.99

>  <Smiles>  (372) 
COc1cc(N2CCN3CCCC3C2)ccc1Nc1nc(Cc2c(Cl)cccc2Cl)c2nc[nH]c2c1C(N)=O

>  <Standard Type>  (372) 
Ki

>  <Standard Relation>  (372) 
'='

>  <Standard Units>  (372) 
nM

>  <Standard Value>  (372) 
2.0

>  <Assay ChEMBL ID>  (372) 
CHEMBL3887723

>  <Assay Description>  (372) 
Enzyme Inhibition Assay: ALK kinase assays were conducted with the indicated final concentrations unless otherwise specified. In 384 well black plates (Axygen), 8 ul of compound (2% DMSO) was incubated with 8 ul Lck-peptide substrate (0.5 uM, biotin-Ahx-GAEEEIYAAFFA-COOH) and 8 ul of a mixture of ALK (3 nM, Millipore) and ATP (50 uM) in reaction buffer (50 mM Hepes, pH 7.4; 10 mM MgCl2; 2 mM MnCl2; 0.1 mM sodium orthovanadate; 0.01% BSA and 1 mM DTT (added fresh before assay) for 1 h at room temperature. Reactions were then quenched by the addition of 30 ul quench solution (streptavidin-allophycocyanin and Europium-cryptate PT66 monoclonal antibody in 40 mM Hepes, pH 7.4; 480 mM KF; 66 mM EDTA; 0.01% Tween-20; and 0.1% BSA) at room temperature. Plates were read 1 h after quenching on an Envision Multilaber Reader and IC50 values were calculated using a sigmoidal fit of the concentration/inhibition response curves. These values were converted to apparent Ki values.

>  <BAO Format ID>  (372) 
BAO_0000357

>  <BAO Label>  (372) 
single protein format

>  <Assay Organism>  (372) 
Homo sapiens

>  <Target ChEMBL ID>  (372) 
CHEMBL4247

>  <Target Name>  (372) 
ALK tyrosine kinase receptor

>  <Target Organism>  (372) 
Homo sapiens

>  <Target Type>  (372) 
SINGLE PROTEIN

>  <Document ChEMBL ID>  (372) 
CHEMBL3886424

>  <Source Description>  (372) 
BindingDB Database

>  <Document Journal>  (372) 
nan

>  <Document Year>  (372) 
2015.0

>  <Active>  (372) 
1.0

>  <bits>  (372) 
<rdkit.DataStructs.cDataStructs.ExplicitBitVect object at 0x000002422F230890>

>  <Group>  (372) 
G2

$$$$

     RDKit          2D

 38 43  0  0  0  0  0  0  0  0999 V2000
    5.2500   -6.4952    0.0000 O   0  0  0  0  0  0  0  0  0  0  0  0
    3.7500   -6.4952    0.0000 C   0  0  0  0  0  0  0  0  0  0  0  0
    3.0000   -5.1962    0.0000 C   0  0  0  0  0  0  0  0  0  0  0  0
    3.7500   -3.8971    0.0000 C   0  0  0  0  0  0  0  0  0  0  0  0
    3.0000   -2.5981    0.0000 C   0  0  0  0  0  0  0  0  0  0  0  0
    1.5000   -2.5981    0.0000 C   0  0  0  0  0  0  0  0  0  0  0  0
    0.7500   -1.2990    0.0000 C   0  0  0  0  0  0  0  0  0  0  0  0
    1.5000    0.0000    0.0000 C   0  0  0  0  0  0  0  0  0  0  0  0
    0.7500    1.2990    0.0000 N   0  0  0  0  0  0  0  0  0  0  0  0
   -0.7500    1.2990    0.0000 C   0  0  0  0  0  0  0  0  0  0  0  0
   -1.5000    0.0000    0.0000 C   0  0  0  0  0  0  0  0  0  0  0  0
   -0.7500   -1.2990    0.0000 C   0  0  0  0  0  0  0  0  0  0  0  0
   -3.0000    0.0000    0.0000 N   0  0  0  0  0  0  0  0  0  0  0  0
   -3.7500   -1.2990    0.0000 C   0  0  0  0  0  0  0  0  0  0  0  0
   -5.2500   -1.2990    0.0000 C   0  0  0  0  0  0  0  0  0  0  0  0
   -6.0000    0.0000    0.0000 C   0  0  0  0  0  0  0  0  0  0  0  0
   -5.2500    1.2990    0.0000 Cl  0  0  0  0  0  0  0  0  0  0  0  0
   -7.5000    0.0000    0.0000 C   0  0  0  0  0  0  0  0  0  0  0  0
   -8.2500   -1.2990    0.0000 C   0  0  0  0  0  0  0  0  0  0  0  0
   -7.5000   -2.5981    0.0000 C   0  0  0  0  0  0  0  0  0  0  0  0
   -6.0000   -2.5981    0.0000 C   0  0  0  0  0  0  0  0  0  0  0  0
   -5.2500   -3.8971    0.0000 Cl  0  0  0  0  0  0  0  0  0  0  0  0
   -3.7500    1.2990    0.0000 C   0  0  0  0  0  0  0  0  0  0  0  0
   -3.0000    2.5981    0.0000 C   0  0  0  0  0  0  0  0  0  0  0  0
   -1.5000    2.5981    0.0000 N   0  0  0  0  0  0  0  0  0  0  0  0
    0.7500   -3.8971    0.0000 C   0  0  0  0  0  0  0  0  0  0  0  0
    1.5000   -5.1962    0.0000 C   0  0  0  0  0  0  0  0  0  0  0  0
    3.0000   -7.7942    0.0000 N   0  0  0  0  0  0  0  0  0  0  0  0
    3.6101   -9.1645    0.0000 C   0  0  0  0  0  0  0  0  0  0  0  0
    2.4954  -10.1682    0.0000 C   0  0  0  0  0  0  0  0  0  0  0  0
    1.1963   -9.4182    0.0000 C   0  0  0  0  0  0  0  0  0  0  0  0
    1.5082   -7.9510    0.0000 C   0  0  0  0  0  0  0  0  0  0  0  0
    0.5045   -6.8363    0.0000 C   0  0  0  0  0  0  0  0  0  0  0  0
   -0.9627   -7.1482    0.0000 N   0  0  0  0  0  0  0  0  0  0  0  0
   -1.5728   -8.5185    0.0000 C   0  0  0  0  0  0  0  0  0  0  0  0
   -3.0646   -8.3617    0.0000 C   0  0  0  0  0  0  0  0  0  0  0  0
   -3.3765   -6.8945    0.0000 C   0  0  0  0  0  0  0  0  0  0  0  0
   -2.0774   -6.1445    0.0000 C   0  0  0  0  0  0  0  0  0  0  0  0
  1  2  2  0
  2  3  1  0
  3  4  2  0
  4  5  1  0
  5  6  2  0
  6  7  1  0
  7  8  2  0
  8  9  1  0
  9 10  2  0
 10 11  1  0
 11 12  2  0
 11 13  1  0
 13 14  1  0
 14 15  1  0
 15 16  2  0
 16 17  1  0
 16 18  1  0
 18 19  2  0
 19 20  1  0
 20 21  2  0
 21 22  1  0
 13 23  1  0
 23 24  1  0
 24 25  1  0
  6 26  1  0
 26 27  2  0
  2 28  1  0
 28 29  1  0
 29 30  1  0
 30 31  1  0
 31 32  1  0
 32 33  1  1
 33 34  1  0
 34 35  1  0
 35 36  1  0
 36 37  1  0
 37 38  1  0
 27  3  1  0
 32 28  1  0
 38 34  1  0
 12  7  1  0
 21 15  1  0
 25 10  1  0
M  END
>  <Compound_ID>  (373) 
CHEMBL1165334

>  <Molecule Name>  (373) 
nan

>  <Molecular Weight>  (373) 
550.53

>  <AlogP>  (373) 
6.19

>  <Smiles>  (373) 
O=C(c1ccc(-c2cnc3c(c2)N(Cc2c(Cl)cccc2Cl)CCN3)cc1)N1CCC[C@H]1CN1CCCC1

>  <Standard Type>  (373) 
IC50

>  <Standard Relation>  (373) 
'='

>  <Standard Units>  (373) 
nM

>  <Standard Value>  (373) 
27.0

>  <Assay ChEMBL ID>  (373) 
CHEMBL1168570

>  <Assay Description>  (373) 
Inhibition of ALK by time-resolved fluorescence assay

>  <BAO Format ID>  (373) 
BAO_0000357

>  <BAO Label>  (373) 
single protein format

>  <Assay Organism>  (373) 
None

>  <Target ChEMBL ID>  (373) 
CHEMBL4247

>  <Target Name>  (373) 
ALK tyrosine kinase receptor

>  <Target Organism>  (373) 
Homo sapiens

>  <Target Type>  (373) 
SINGLE PROTEIN

>  <Document ChEMBL ID>  (373) 
CHEMBL1165965

>  <Source Description>  (373) 
Scientific Literature

>  <Document Journal>  (373) 
Bioorg Med Chem

>  <Document Year>  (373) 
2010.0

>  <Active>  (373) 
1.0

>  <bits>  (373) 
<rdkit.DataStructs.cDataStructs.ExplicitBitVect object at 0x000002422F230430>

>  <Group>  (373) 
G2

$$$$

     RDKit          2D

 44 48  0  0  0  0  0  0  0  0999 V2000
  -10.5759   -3.0359    0.0000 C   0  0  0  0  0  0  0  0  0  0  0  0
   -9.4612   -4.0396    0.0000 C   0  0  0  0  0  0  0  0  0  0  0  0
   -9.7730   -5.5068    0.0000 C   0  0  0  0  0  0  0  0  0  0  0  0
   -8.0346   -3.5760    0.0000 N   0  0  0  0  0  0  0  0  0  0  0  0
   -6.9199   -4.5797    0.0000 C   0  0  0  0  0  0  0  0  0  0  0  0
   -7.2317   -6.0469    0.0000 O   0  0  0  0  0  0  0  0  0  0  0  0
   -5.4933   -4.1162    0.0000 C   0  0  0  0  0  0  0  0  0  0  0  0
   -5.1814   -2.6490    0.0000 C   0  0  0  0  0  0  0  0  0  0  0  0
   -3.7548   -2.1855    0.0000 C   0  0  0  0  0  0  0  0  0  0  0  0
   -2.6401   -3.1891    0.0000 C   0  0  0  0  0  0  0  0  0  0  0  0
   -1.2135   -2.7256    0.0000 N   0  0  0  0  0  0  0  0  0  0  0  0
   -0.0000   -3.6073    0.0000 C   0  0  0  0  0  0  0  0  0  0  0  0
   -0.0000   -5.1073    0.0000 N   0  0  0  0  0  0  0  0  0  0  0  0
    1.2990   -5.8573    0.0000 C   0  0  0  0  0  0  0  0  0  0  0  0
    2.5981   -5.1073    0.0000 O   0  0  0  0  0  0  0  0  0  0  0  0
    1.2990   -7.3573    0.0000 C   0  0  0  0  0  0  0  0  0  0  0  0
   -0.0000   -8.1073    0.0000 C   0  0  0  0  0  0  0  0  0  0  0  0
   -0.0000   -9.6073    0.0000 C   0  0  0  0  0  0  0  0  0  0  0  0
   -1.2990  -10.3573    0.0000 F   0  0  0  0  0  0  0  0  0  0  0  0
    1.2990  -10.3573    0.0000 C   0  0  0  0  0  0  0  0  0  0  0  0
    2.5981   -9.6073    0.0000 C   0  0  0  0  0  0  0  0  0  0  0  0
    3.8971  -10.3573    0.0000 C   0  0  0  0  0  0  0  0  0  0  0  0
    5.1962  -11.1073    0.0000 N   0  0  0  0  0  0  0  0  0  0  0  0
    2.5981   -8.1073    0.0000 C   0  0  0  0  0  0  0  0  0  0  0  0
    1.2135   -2.7256    0.0000 N   0  0  0  0  0  0  0  0  0  0  0  0
    0.7500   -1.2990    0.0000 C   0  0  0  0  0  0  0  0  0  0  0  0
    1.5000    0.0000    0.0000 C   0  0  0  0  0  0  0  0  0  0  0  0
    0.7500    1.2990    0.0000 C   0  0  0  0  0  0  0  0  0  0  0  0
   -0.7500    1.2990    0.0000 C   0  0  0  0  0  0  0  0  0  0  0  0
   -1.5000    2.5981    0.0000 C   0  0  0  0  0  0  0  0  0  0  0  0
   -0.7500    3.8971    0.0000 N   0  0  0  0  0  0  0  0  0  0  0  0
    0.7500    3.8971    0.0000 C   0  0  0  0  0  0  0  0  0  0  0  0
    1.5000    5.1962    0.0000 C   0  0  0  0  0  0  0  0  0  0  0  0
    0.7500    6.4952    0.0000 C   0  0  0  0  0  0  0  0  0  0  0  0
    1.5000    7.7942    0.0000 C   0  0  0  0  0  0  0  0  0  0  0  0
    0.2010    8.5442    0.0000 C   0  0  0  0  0  0  0  0  0  0  0  0
    2.7990    7.0442    0.0000 C   0  0  0  0  0  0  0  0  0  0  0  0
    2.2500    9.0933    0.0000 O   0  0  0  0  0  0  0  0  0  0  0  0
   -0.7500    6.4952    0.0000 C   0  0  0  0  0  0  0  0  0  0  0  0
   -1.5000    5.1962    0.0000 C   0  0  0  0  0  0  0  0  0  0  0  0
   -1.5000    0.0000    0.0000 C   0  0  0  0  0  0  0  0  0  0  0  0
   -0.7500   -1.2990    0.0000 C   0  0  0  0  0  0  0  0  0  0  0  0
   -2.9520   -4.6564    0.0000 C   0  0  0  0  0  0  0  0  0  0  0  0
   -4.3786   -5.1199    0.0000 C   0  0  0  0  0  0  0  0  0  0  0  0
  1  2  1  0
  2  3  1  0
  2  4  1  0
  4  5  1  0
  5  6  2  0
  7  5  1  1
  7  8  1  0
  8  9  1  0
  9 10  1  0
 10 11  1  1
 11 12  1  0
 12 13  2  0
 13 14  1  0
 14 15  2  0
 14 16  1  0
 16 17  2  0
 17 18  1  0
 18 19  1  0
 18 20  2  0
 20 21  1  0
 21 22  1  0
 22 23  3  0
 21 24  2  0
 12 25  1  0
 25 26  1  0
 26 27  2  0
 27 28  1  0
 28 29  2  0
 29 30  1  0
 30 31  1  0
 31 32  1  0
 32 33  1  0
 33 34  1  0
 34 35  1  0
 35 36  1  0
 35 37  1  0
 35 38  1  0
 34 39  1  0
 39 40  1  0
 29 41  1  0
 41 42  2  0
 10 43  1  0
 43 44  1  0
 44  7  1  0
 42 11  1  0
 24 16  1  0
 42 26  1  0
 40 31  1  0
M  END
>  <Compound_ID>  (374) 
CHEMBL2172320

>  <Molecule Name>  (374) 
nan

>  <Molecular Weight>  (374) 
602.76

>  <AlogP>  (374) 
4.96

>  <Smiles>  (374) 
CC(C)NC(=O)[C@H]1CC[C@@H](n2/c(=N/C(=O)c3cc(F)cc(C#N)c3)[nH]c3ccc(CN4CCC(C(C)(C)O)CC4)cc32)CC1

>  <Standard Type>  (374) 
IC50

>  <Standard Relation>  (374) 
'='

>  <Standard Units>  (374) 
nM

>  <Standard Value>  (374) 
3.0

>  <Assay ChEMBL ID>  (374) 
CHEMBL2176371

>  <Assay Description>  (374) 
Inhibition of ALK enzyme

>  <BAO Format ID>  (374) 
BAO_0000357

>  <BAO Label>  (374) 
single protein format

>  <Assay Organism>  (374) 
None

>  <Target ChEMBL ID>  (374) 
CHEMBL4247

>  <Target Name>  (374) 
ALK tyrosine kinase receptor

>  <Target Organism>  (374) 
Homo sapiens

>  <Target Type>  (374) 
SINGLE PROTEIN

>  <Document ChEMBL ID>  (374) 
CHEMBL2169770

>  <Source Description>  (374) 
Scientific Literature

>  <Document Journal>  (374) 
J Med Chem

>  <Document Year>  (374) 
2012.0

>  <Active>  (374) 
1.0

>  <bits>  (374) 
<rdkit.DataStructs.cDataStructs.ExplicitBitVect object at 0x000002422F2302E0>

>  <Group>  (374) 
G2

$$$$

     RDKit          2D

 38 41  0  0  0  0  0  0  0  0999 V2000
   -3.7500    3.8971    0.0000 C   0  0  0  0  0  0  0  0  0  0  0  0
   -2.2500    3.8971    0.0000 C   0  0  0  0  0  0  0  0  0  0  0  0
   -1.5000    5.1962    0.0000 C   0  0  0  0  0  0  0  0  0  0  0  0
   -1.5000    2.5981    0.0000 S   0  0  0  0  0  0  0  0  0  0  0  0
   -0.2010    3.3481    0.0000 O   0  0  0  0  0  0  0  0  0  0  0  0
   -2.7990    1.8481    0.0000 O   0  0  0  0  0  0  0  0  0  0  0  0
   -0.7500    1.2990    0.0000 C   0  0  0  0  0  0  0  0  0  0  0  0
   -1.5000   -0.0000    0.0000 C   0  0  0  0  0  0  0  0  0  0  0  0
   -0.7500   -1.2990    0.0000 C   0  0  0  0  0  0  0  0  0  0  0  0
    0.7500   -1.2990    0.0000 C   0  0  0  0  0  0  0  0  0  0  0  0
    1.5000   -0.0000    0.0000 C   0  0  0  0  0  0  0  0  0  0  0  0
    0.7500    1.2990    0.0000 C   0  0  0  0  0  0  0  0  0  0  0  0
    1.5000    2.5981    0.0000 N   0  0  0  0  0  0  0  0  0  0  0  0
    3.0000    2.5981    0.0000 C   0  0  0  0  0  0  0  0  0  0  0  0
    3.7500    1.2990    0.0000 N   0  0  0  0  0  0  0  0  0  0  0  0
    5.2500    1.2990    0.0000 C   0  0  0  0  0  0  0  0  0  0  0  0
    6.0000   -0.0000    0.0000 N   0  0  0  0  0  0  0  0  0  0  0  0
    7.5000   -0.0000    0.0000 C   0  0  0  0  0  0  0  0  0  0  0  0
    8.2500   -1.2990    0.0000 C   0  0  0  0  0  0  0  0  0  0  0  0
    9.7500   -1.2990    0.0000 C   0  0  0  0  0  0  0  0  0  0  0  0
   10.5000   -0.0000    0.0000 C   0  0  0  0  0  0  0  0  0  0  0  0
    9.7500    1.2990    0.0000 C   0  0  0  0  0  0  0  0  0  0  0  0
   10.5000    2.5981    0.0000 N   0  0  0  0  0  0  0  0  0  0  0  0
   12.0000    2.5981    0.0000 C   0  0  0  0  0  0  0  0  0  0  0  0
   12.7500    1.2990    0.0000 O   0  0  0  0  0  0  0  0  0  0  0  0
   12.7500    3.8971    0.0000 C   0  0  0  0  0  0  0  0  0  0  0  0
   14.2500    3.8971    0.0000 N   0  0  0  0  0  0  0  0  0  0  0  0
   15.0000    2.5981    0.0000 C   0  0  0  0  0  0  0  0  0  0  0  0
   16.5000    2.5981    0.0000 C   0  0  0  0  0  0  0  0  0  0  0  0
   17.2500    3.8971    0.0000 N   0  0  0  0  0  0  0  0  0  0  0  0
   18.7500    3.8971    0.0000 C   0  0  0  0  0  0  0  0  0  0  0  0
   16.5000    5.1962    0.0000 C   0  0  0  0  0  0  0  0  0  0  0  0
   15.0000    5.1962    0.0000 C   0  0  0  0  0  0  0  0  0  0  0  0
    8.2500    1.2990    0.0000 C   0  0  0  0  0  0  0  0  0  0  0  0
    6.0000    2.5981    0.0000 N   0  0  0  0  0  0  0  0  0  0  0  0
    5.2500    3.8971    0.0000 C   0  0  0  0  0  0  0  0  0  0  0  0
    3.7500    3.8971    0.0000 C   0  0  0  0  0  0  0  0  0  0  0  0
    3.0000    5.1962    0.0000 Cl  0  0  0  0  0  0  0  0  0  0  0  0
  1  2  1  0
  2  3  1  0
  2  4  1  0
  4  5  2  0
  4  6  2  0
  4  7  1  0
  7  8  2  0
  8  9  1  0
  9 10  2  0
 10 11  1  0
 11 12  2  0
 12 13  1  0
 13 14  1  0
 14 15  2  0
 15 16  1  0
 16 17  1  0
 17 18  1  0
 18 19  2  0
 19 20  1  0
 20 21  2  0
 21 22  1  0
 22 23  1  0
 23 24  1  0
 24 25  2  0
 24 26  1  0
 26 27  1  0
 27 28  1  0
 28 29  1  0
 29 30  1  0
 30 31  1  0
 30 32  1  0
 32 33  1  0
 22 34  2  0
 16 35  2  0
 35 36  1  0
 36 37  2  0
 37 38  1  0
 12  7  1  0
 37 14  1  0
 34 18  1  0
 33 27  1  0
M  END
>  <Compound_ID>  (375) 
CHEMBL3357456

>  <Molecule Name>  (375) 
nan

>  <Molecular Weight>  (375) 
558.11

>  <AlogP>  (375) 
3.99

>  <Smiles>  (375) 
CC(C)S(=O)(=O)c1ccccc1Nc1nc(Nc2cccc(NC(=O)CN3CCN(C)CC3)c2)ncc1Cl

>  <Standard Type>  (375) 
IC50

>  <Standard Relation>  (375) 
'='

>  <Standard Units>  (375) 
nM

>  <Standard Value>  (375) 
1.7

>  <Assay ChEMBL ID>  (375) 
CHEMBL3364272

>  <Assay Description>  (375) 
Inhibition of ALK (unknown origin) after 60 mins by ELISA

>  <BAO Format ID>  (375) 
BAO_0000357

>  <BAO Label>  (375) 
single protein format

>  <Assay Organism>  (375) 
Homo sapiens

>  <Target ChEMBL ID>  (375) 
CHEMBL4247

>  <Target Name>  (375) 
ALK tyrosine kinase receptor

>  <Target Organism>  (375) 
Homo sapiens

>  <Target Type>  (375) 
SINGLE PROTEIN

>  <Document ChEMBL ID>  (375) 
CHEMBL3351234

>  <Source Description>  (375) 
Scientific Literature

>  <Document Journal>  (375) 
J Med Chem

>  <Document Year>  (375) 
2015.0

>  <Active>  (375) 
1.0

>  <bits>  (375) 
<rdkit.DataStructs.cDataStructs.ExplicitBitVect object at 0x000002422F233D80>

>  <Group>  (375) 
G2

$$$$

     RDKit          2D

 40 43  0  0  0  0  0  0  0  0999 V2000
   -6.2940    7.2357    0.0000 C   0  0  0  0  0  0  0  0  0  0  0  0
   -5.1793    6.2320    0.0000 O   0  0  0  0  0  0  0  0  0  0  0  0
   -3.7527    6.6955    0.0000 C   0  0  0  0  0  0  0  0  0  0  0  0
   -3.4408    8.1628    0.0000 C   0  0  0  0  0  0  0  0  0  0  0  0
   -2.0143    8.6263    0.0000 C   0  0  0  0  0  0  0  0  0  0  0  0
   -1.7024   10.0935    0.0000 C   0  0  0  0  0  0  0  0  0  0  0  0
   -2.8171   11.0972    0.0000 O   0  0  0  0  0  0  0  0  0  0  0  0
   -0.2758   10.5570    0.0000 N   0  0  0  0  0  0  0  0  0  0  0  0
    0.0361   12.0242    0.0000 C   0  0  0  0  0  0  0  0  0  0  0  0
    1.4627   12.4878    0.0000 C   0  0  0  0  0  0  0  0  0  0  0  0
    1.7745   13.9550    0.0000 C   0  0  0  0  0  0  0  0  0  0  0  0
    3.2011   14.4185    0.0000 C   0  0  0  0  0  0  0  0  0  0  0  0
    3.5130   15.8857    0.0000 N   0  0  0  0  0  0  0  0  0  0  0  0
    4.9396   16.3493    0.0000 C   0  0  0  0  0  0  0  0  0  0  0  0
    2.3983   16.8894    0.0000 C   0  0  0  0  0  0  0  0  0  0  0  0
   -0.8995    7.6226    0.0000 C   0  0  0  0  0  0  0  0  0  0  0  0
   -1.2114    6.1554    0.0000 C   0  0  0  0  0  0  0  0  0  0  0  0
   -2.6380    5.6918    0.0000 C   0  0  0  0  0  0  0  0  0  0  0  0
   -2.9499    4.2246    0.0000 N   0  0  0  0  0  0  0  0  0  0  0  0
   -1.8351    3.2209    0.0000 C   0  0  0  0  0  0  0  0  0  0  0  0
   -0.4086    3.6844    0.0000 N   0  0  0  0  0  0  0  0  0  0  0  0
    0.7062    2.6807    0.0000 C   0  0  0  0  0  0  0  0  0  0  0  0
    2.1328    3.1443    0.0000 C   0  0  0  0  0  0  0  0  0  0  0  0
    2.4446    4.6115    0.0000 C   0  0  0  0  0  0  0  0  0  0  0  0
    3.8712    5.0750    0.0000 C   0  0  0  0  0  0  0  0  0  0  0  0
    4.9859    4.0713    0.0000 Cl  0  0  0  0  0  0  0  0  0  0  0  0
    4.1831    6.5422    0.0000 C   0  0  0  0  0  0  0  0  0  0  0  0
    3.0684    7.5459    0.0000 C   0  0  0  0  0  0  0  0  0  0  0  0
    1.6418    7.0824    0.0000 C   0  0  0  0  0  0  0  0  0  0  0  0
    1.3299    5.6152    0.0000 C   0  0  0  0  0  0  0  0  0  0  0  0
   -0.0967    5.1517    0.0000 Cl  0  0  0  0  0  0  0  0  0  0  0  0
    0.3943    1.2135    0.0000 N   0  0  0  0  0  0  0  0  0  0  0  0
    1.2760    0.0000    0.0000 C   0  0  0  0  0  0  0  0  0  0  0  0
    0.3943   -1.2135    0.0000 C   0  0  0  0  0  0  0  0  0  0  0  0
   -1.0323   -0.7500    0.0000 N   0  0  0  0  0  0  0  0  0  0  0  0
   -1.0323    0.7500    0.0000 C   0  0  0  0  0  0  0  0  0  0  0  0
   -2.1470    1.7537    0.0000 C   0  0  0  0  0  0  0  0  0  0  0  0
   -3.5736    1.2902    0.0000 C   0  0  0  0  0  0  0  0  0  0  0  0
   -4.6883    2.2939    0.0000 N   0  0  0  0  0  0  0  0  0  0  0  0
   -3.8855   -0.1771    0.0000 O   0  0  0  0  0  0  0  0  0  0  0  0
  1  2  1  0
  2  3  1  0
  3  4  2  0
  4  5  1  0
  5  6  1  0
  6  7  2  0
  6  8  1  0
  8  9  1  0
  9 10  1  0
 10 11  1  0
 11 12  1  0
 12 13  1  0
 13 14  1  0
 13 15  1  0
  5 16  2  0
 16 17  1  0
 17 18  2  0
 18 19  1  0
 19 20  1  0
 20 21  1  0
 21 22  2  0
 22 23  1  0
 23 24  1  0
 24 25  2  0
 25 26  1  0
 25 27  1  0
 27 28  2  0
 28 29  1  0
 29 30  2  0
 30 31  1  0
 22 32  1  0
 32 33  1  0
 33 34  2  0
 34 35  1  0
 35 36  2  0
 36 37  1  0
 37 38  1  0
 38 39  1  0
 38 40  2  0
 18  3  1  0
 37 20  2  0
 30 24  1  0
 36 32  1  0
M  END
>  <Compound_ID>  (376) 
CHEMBL3986050

>  <Molecule Name>  (376) 
nan

>  <Molecular Weight>  (376) 
584.51

>  <AlogP>  (376) 
4.55

>  <Smiles>  (376) 
COc1cc(C(=O)NCCCCN(C)C)ccc1Nc1nc(Cc2c(Cl)cccc2Cl)n2ccnc2c1C(N)=O

>  <Standard Type>  (376) 
Ki

>  <Standard Relation>  (376) 
'='

>  <Standard Units>  (376) 
nM

>  <Standard Value>  (376) 
3.0

>  <Assay ChEMBL ID>  (376) 
CHEMBL3887723

>  <Assay Description>  (376) 
Enzyme Inhibition Assay: ALK kinase assays were conducted with the indicated final concentrations unless otherwise specified. In 384 well black plates (Axygen), 8 ul of compound (2% DMSO) was incubated with 8 ul Lck-peptide substrate (0.5 uM, biotin-Ahx-GAEEEIYAAFFA-COOH) and 8 ul of a mixture of ALK (3 nM, Millipore) and ATP (50 uM) in reaction buffer (50 mM Hepes, pH 7.4; 10 mM MgCl2; 2 mM MnCl2; 0.1 mM sodium orthovanadate; 0.01% BSA and 1 mM DTT (added fresh before assay) for 1 h at room temperature. Reactions were then quenched by the addition of 30 ul quench solution (streptavidin-allophycocyanin and Europium-cryptate PT66 monoclonal antibody in 40 mM Hepes, pH 7.4; 480 mM KF; 66 mM EDTA; 0.01% Tween-20; and 0.1% BSA) at room temperature. Plates were read 1 h after quenching on an Envision Multilaber Reader and IC50 values were calculated using a sigmoidal fit of the concentration/inhibition response curves. These values were converted to apparent Ki values.

>  <BAO Format ID>  (376) 
BAO_0000357

>  <BAO Label>  (376) 
single protein format

>  <Assay Organism>  (376) 
Homo sapiens

>  <Target ChEMBL ID>  (376) 
CHEMBL4247

>  <Target Name>  (376) 
ALK tyrosine kinase receptor

>  <Target Organism>  (376) 
Homo sapiens

>  <Target Type>  (376) 
SINGLE PROTEIN

>  <Document ChEMBL ID>  (376) 
CHEMBL3886424

>  <Source Description>  (376) 
BindingDB Database

>  <Document Journal>  (376) 
nan

>  <Document Year>  (376) 
2015.0

>  <Active>  (376) 
1.0

>  <bits>  (376) 
<rdkit.DataStructs.cDataStructs.ExplicitBitVect object at 0x000002422F233C30>

>  <Group>  (376) 
G2

$$$$

     RDKit          2D

 37 41  0  0  0  0  0  0  0  0999 V2000
    1.3299    5.6152    0.0000 C   0  0  0  0  0  0  0  0  0  0  0  0
   -0.0967    5.1517    0.0000 O   0  0  0  0  0  0  0  0  0  0  0  0
   -1.2114    6.1554    0.0000 C   0  0  0  0  0  0  0  0  0  0  0  0
   -2.6380    5.6918    0.0000 C   0  0  0  0  0  0  0  0  0  0  0  0
   -2.9499    4.2246    0.0000 N   0  0  0  0  0  0  0  0  0  0  0  0
   -1.8351    3.2209    0.0000 C   0  0  0  0  0  0  0  0  0  0  0  0
   -0.4086    3.6844    0.0000 N   0  0  0  0  0  0  0  0  0  0  0  0
    0.7062    2.6807    0.0000 C   0  0  0  0  0  0  0  0  0  0  0  0
    2.1328    3.1443    0.0000 C   0  0  0  0  0  0  0  0  0  0  0  0
    3.2475    2.1406    0.0000 C   0  0  0  0  0  0  0  0  0  0  0  0
    4.6741    2.6041    0.0000 C   0  0  0  0  0  0  0  0  0  0  0  0
    4.9859    4.0713    0.0000 Cl  0  0  0  0  0  0  0  0  0  0  0  0
    5.7888    1.6004    0.0000 C   0  0  0  0  0  0  0  0  0  0  0  0
    5.4769    0.1332    0.0000 C   0  0  0  0  0  0  0  0  0  0  0  0
    4.0503   -0.3303    0.0000 C   0  0  0  0  0  0  0  0  0  0  0  0
    2.9356    0.6734    0.0000 C   0  0  0  0  0  0  0  0  0  0  0  0
    2.1845    0.2039    0.0000 Cl  0  0  0  0  0  0  0  0  0  0  0  0
    0.3943    1.2135    0.0000 C   0  0  0  0  0  0  0  0  0  0  0  0
    1.2760    0.0000    0.0000 N   0  0  0  0  0  0  0  0  0  0  0  0
    0.3943   -1.2135    0.0000 C   0  0  0  0  0  0  0  0  0  0  0  0
   -1.0323   -0.7500    0.0000 N   0  0  0  0  0  0  0  0  0  0  0  0
   -1.0323    0.7500    0.0000 C   0  0  0  0  0  0  0  0  0  0  0  0
   -2.1470    1.7537    0.0000 C   0  0  0  0  0  0  0  0  0  0  0  0
   -3.5736    1.2902    0.0000 C   0  0  0  0  0  0  0  0  0  0  0  0
   -4.6883    2.2939    0.0000 N   0  0  0  0  0  0  0  0  0  0  0  0
   -3.8855   -0.1771    0.0000 O   0  0  0  0  0  0  0  0  0  0  0  0
   -3.7527    6.6955    0.0000 C   0  0  0  0  0  0  0  0  0  0  0  0
   -3.4408    8.1628    0.0000 C   0  0  0  0  0  0  0  0  0  0  0  0
   -2.0143    8.6263    0.0000 C   0  0  0  0  0  0  0  0  0  0  0  0
   -1.7024   10.0935    0.0000 N   0  0  0  0  0  0  0  0  0  0  0  0
   -0.2758   10.5570    0.0000 C   0  0  0  0  0  0  0  0  0  0  0  0
    0.0361   12.0242    0.0000 C   0  0  0  0  0  0  0  0  0  0  0  0
   -1.0786   13.0279    0.0000 N   0  0  0  0  0  0  0  0  0  0  0  0
   -2.5052   12.5644    0.0000 C   0  0  0  0  0  0  0  0  0  0  0  0
   -2.8171   11.0972    0.0000 C   0  0  0  0  0  0  0  0  0  0  0  0
   -0.8995    7.6226    0.0000 C   0  0  0  0  0  0  0  0  0  0  0  0
    0.5271    8.0861    0.0000 F   0  0  0  0  0  0  0  0  0  0  0  0
  1  2  1  0
  2  3  1  0
  3  4  2  0
  4  5  1  0
  5  6  1  0
  6  7  2  0
  7  8  1  0
  8  9  1  0
  9 10  1  0
 10 11  2  0
 11 12  1  0
 11 13  1  0
 13 14  2  0
 14 15  1  0
 15 16  2  0
 16 17  1  0
  8 18  2  0
 18 19  1  0
 19 20  2  0
 20 21  1  0
 21 22  1  0
 22 23  2  0
 23 24  1  0
 24 25  1  0
 24 26  2  0
  4 27  1  0
 27 28  2  0
 28 29  1  0
 29 30  1  0
 30 31  1  0
 31 32  1  0
 32 33  1  0
 33 34  1  0
 34 35  1  0
 29 36  2  0
 36 37  1  0
 36  3  1  0
 23  6  1  0
 35 30  1  0
 16 10  1  0
 22 18  1  0
M  END
>  <Compound_ID>  (377) 
CHEMBL3950416

>  <Molecule Name>  (377) 
nan

>  <Molecular Weight>  (377) 
544.42

>  <AlogP>  (377) 
4.26

>  <Smiles>  (377) 
COc1c(Nc2nc(Cc3c(Cl)cccc3Cl)c3nc[nH]c3c2C(N)=O)ccc(N2CCNCC2)c1F

>  <Standard Type>  (377) 
Ki

>  <Standard Relation>  (377) 
'='

>  <Standard Units>  (377) 
nM

>  <Standard Value>  (377) 
1.5

>  <Assay ChEMBL ID>  (377) 
CHEMBL3887723

>  <Assay Description>  (377) 
Enzyme Inhibition Assay: ALK kinase assays were conducted with the indicated final concentrations unless otherwise specified. In 384 well black plates (Axygen), 8 ul of compound (2% DMSO) was incubated with 8 ul Lck-peptide substrate (0.5 uM, biotin-Ahx-GAEEEIYAAFFA-COOH) and 8 ul of a mixture of ALK (3 nM, Millipore) and ATP (50 uM) in reaction buffer (50 mM Hepes, pH 7.4; 10 mM MgCl2; 2 mM MnCl2; 0.1 mM sodium orthovanadate; 0.01% BSA and 1 mM DTT (added fresh before assay) for 1 h at room temperature. Reactions were then quenched by the addition of 30 ul quench solution (streptavidin-allophycocyanin and Europium-cryptate PT66 monoclonal antibody in 40 mM Hepes, pH 7.4; 480 mM KF; 66 mM EDTA; 0.01% Tween-20; and 0.1% BSA) at room temperature. Plates were read 1 h after quenching on an Envision Multilaber Reader and IC50 values were calculated using a sigmoidal fit of the concentration/inhibition response curves. These values were converted to apparent Ki values.

>  <BAO Format ID>  (377) 
BAO_0000357

>  <BAO Label>  (377) 
single protein format

>  <Assay Organism>  (377) 
Homo sapiens

>  <Target ChEMBL ID>  (377) 
CHEMBL4247

>  <Target Name>  (377) 
ALK tyrosine kinase receptor

>  <Target Organism>  (377) 
Homo sapiens

>  <Target Type>  (377) 
SINGLE PROTEIN

>  <Document ChEMBL ID>  (377) 
CHEMBL3886424

>  <Source Description>  (377) 
BindingDB Database

>  <Document Journal>  (377) 
nan

>  <Document Year>  (377) 
2015.0

>  <Active>  (377) 
1.0

>  <bits>  (377) 
<rdkit.DataStructs.cDataStructs.ExplicitBitVect object at 0x000002422F233B50>

>  <Group>  (377) 
G2

$$$$

     RDKit          2D

 38 42  0  0  0  0  0  0  0  0999 V2000
    5.2500   -6.4952    0.0000 C   0  0  0  0  0  0  0  0  0  0  0  0
    3.7500   -6.4952    0.0000 C   0  0  0  0  0  0  0  0  0  0  0  0
    3.0000   -5.1962    0.0000 O   0  0  0  0  0  0  0  0  0  0  0  0
    1.5000   -5.1962    0.0000 C   0  0  0  0  0  0  0  0  0  0  0  0
    0.7500   -6.4952    0.0000 C   0  0  0  0  0  0  0  0  0  0  0  0
   -0.7500   -6.4952    0.0000 C   0  0  0  0  0  0  0  0  0  0  0  0
   -1.5000   -7.7942    0.0000 C   0  0  0  0  0  0  0  0  0  0  0  0
   -3.0000   -7.7942    0.0000 C   0  0  0  0  0  0  0  0  0  0  0  0
   -3.7500   -9.0933    0.0000 C   0  0  0  0  0  0  0  0  0  0  0  0
   -3.0000  -10.3923    0.0000 N   0  0  0  0  0  0  0  0  0  0  0  0
   -3.7500  -11.6913    0.0000 C   0  0  0  0  0  0  0  0  0  0  0  0
   -1.5000  -10.3923    0.0000 C   0  0  0  0  0  0  0  0  0  0  0  0
   -0.7500   -9.0933    0.0000 C   0  0  0  0  0  0  0  0  0  0  0  0
   -1.5000   -5.1962    0.0000 C   0  0  0  0  0  0  0  0  0  0  0  0
   -0.7500   -3.8971    0.0000 C   0  0  0  0  0  0  0  0  0  0  0  0
    0.7500   -3.8971    0.0000 C   0  0  0  0  0  0  0  0  0  0  0  0
    1.5000   -2.5981    0.0000 N   0  0  0  0  0  0  0  0  0  0  0  0
    0.7500   -1.2990    0.0000 C   0  0  0  0  0  0  0  0  0  0  0  0
    1.5000    0.0000    0.0000 N   0  0  0  0  0  0  0  0  0  0  0  0
    0.7500    1.2990    0.0000 C   0  0  0  0  0  0  0  0  0  0  0  0
   -0.7500    1.2990    0.0000 C   0  0  0  0  0  0  0  0  0  0  0  0
   -1.5000    0.0000    0.0000 C   0  0  0  0  0  0  0  0  0  0  0  0
   -0.7500   -1.2990    0.0000 N   0  0  0  0  0  0  0  0  0  0  0  0
   -3.0000    0.0000    0.0000 N   0  0  0  0  0  0  0  0  0  0  0  0
   -3.7500   -1.2990    0.0000 C   0  0  0  0  0  0  0  0  0  0  0  0
   -5.2500   -1.2990    0.0000 C   0  0  0  0  0  0  0  0  0  0  0  0
   -6.0000    0.0000    0.0000 C   0  0  0  0  0  0  0  0  0  0  0  0
   -7.5000    0.0000    0.0000 C   0  0  0  0  0  0  0  0  0  0  0  0
   -8.2500   -1.2990    0.0000 C   0  0  0  0  0  0  0  0  0  0  0  0
   -7.5000   -2.5981    0.0000 C   0  0  0  0  0  0  0  0  0  0  0  0
   -6.0000   -2.5981    0.0000 C   0  0  0  0  0  0  0  0  0  0  0  0
   -3.7500    1.2990    0.0000 C   0  0  0  0  0  0  0  0  0  0  0  0
   -5.2500    1.2990    0.0000 C   0  0  0  0  0  0  0  0  0  0  0  0
   -6.0000    2.5981    0.0000 C   0  0  0  0  0  0  0  0  0  0  0  0
   -3.0000    2.5981    0.0000 C   0  0  0  0  0  0  0  0  0  0  0  0
   -3.7500    3.8971    0.0000 O   0  0  0  0  0  0  0  0  0  0  0  0
   -1.5000    2.5981    0.0000 N   0  0  0  0  0  0  0  0  0  0  0  0
   -0.7500    3.8971    0.0000 C   0  0  0  0  0  0  0  0  0  0  0  0
  1  2  1  0
  2  3  1  0
  3  4  1  0
  4  5  2  0
  5  6  1  0
  6  7  1  0
  7  8  1  0
  8  9  1  0
  9 10  1  0
 10 11  1  0
 10 12  1  0
 12 13  1  0
  6 14  2  0
 14 15  1  0
 15 16  2  0
 16 17  1  0
 17 18  1  0
 18 19  2  0
 19 20  1  0
 20 21  2  0
 21 22  1  0
 22 23  2  0
 22 24  1  0
 24 25  1  0
 25 26  1  0
 26 27  2  0
 27 28  1  0
 28 29  2  0
 29 30  1  0
 30 31  2  0
 24 32  1  0
 32 33  1  6
 33 34  1  0
 32 35  1  0
 35 36  2  0
 35 37  1  0
 37 38  1  0
 16  4  1  0
 23 18  1  0
 31 26  1  0
 13  7  1  0
 37 21  1  0
M  END
>  <Compound_ID>  (378) 
CHEMBL4469087

>  <Molecule Name>  (378) 
nan

>  <Molecular Weight>  (378) 
514.67

>  <AlogP>  (378) 
5.19

>  <Smiles>  (378) 
CCOc1cc(C2CCN(C)CC2)ccc1Nc1ncc2c(n1)N(Cc1ccccc1)[C@H](CC)C(=O)N2C

>  <Standard Type>  (378) 
IC50

>  <Standard Relation>  (378) 
'='

>  <Standard Units>  (378) 
nM

>  <Standard Value>  (378) 
85.0

>  <Assay ChEMBL ID>  (378) 
CHEMBL4401876

>  <Assay Description>  (378) 
Displacement of kinase tracer 236 from human N-terminal GST-tagged ALK F1174L mutant (1058 to 1620 residues) after 60 mins by LanthaScreen Eu--kinase binding assay

>  <BAO Format ID>  (378) 
BAO_0000357

>  <BAO Label>  (378) 
single protein format

>  <Assay Organism>  (378) 
Homo sapiens

>  <Target ChEMBL ID>  (378) 
CHEMBL4247

>  <Target Name>  (378) 
ALK tyrosine kinase receptor

>  <Target Organism>  (378) 
Homo sapiens

>  <Target Type>  (378) 
SINGLE PROTEIN

>  <Document ChEMBL ID>  (378) 
CHEMBL4400550

>  <Source Description>  (378) 
Scientific Literature

>  <Document Journal>  (378) 
J Med Chem

>  <Document Year>  (378) 
2019.0

>  <Active>  (378) 
1.0

>  <bits>  (378) 
<rdkit.DataStructs.cDataStructs.ExplicitBitVect object at 0x000002422F2329D0>

>  <Group>  (378) 
G2

$$$$

     RDKit          2D

 39 43  0  0  0  0  0  0  0  0999 V2000
    2.8629   12.5431    0.0000 C   0  0  0  0  0  0  0  0  0  0  0  0
    4.2962   12.9852    0.0000 C   0  0  0  0  0  0  0  0  0  0  0  0
    4.6300   14.4476    0.0000 C   0  0  0  0  0  0  0  0  0  0  0  0
    5.3958   11.9650    0.0000 S   0  0  0  0  0  0  0  0  0  0  0  0
    4.3756   10.8654    0.0000 O   0  0  0  0  0  0  0  0  0  0  0  0
    6.4161   13.0645    0.0000 O   0  0  0  0  0  0  0  0  0  0  0  0
    6.4954   10.9447    0.0000 C   0  0  0  0  0  0  0  0  0  0  0  0
    7.9288   11.3868    0.0000 C   0  0  0  0  0  0  0  0  0  0  0  0
    9.0283   10.3666    0.0000 C   0  0  0  0  0  0  0  0  0  0  0  0
    8.6945    8.9042    0.0000 C   0  0  0  0  0  0  0  0  0  0  0  0
    7.2612    8.4620    0.0000 C   0  0  0  0  0  0  0  0  0  0  0  0
    6.1616    9.4823    0.0000 C   0  0  0  0  0  0  0  0  0  0  0  0
    4.7283    9.0402    0.0000 N   0  0  0  0  0  0  0  0  0  0  0  0
    4.3945    7.5778    0.0000 C   0  0  0  0  0  0  0  0  0  0  0  0
    2.9611    7.1357    0.0000 N   0  0  0  0  0  0  0  0  0  0  0  0
    2.6273    5.6733    0.0000 C   0  0  0  0  0  0  0  0  0  0  0  0
    1.1940    5.2311    0.0000 N   0  0  0  0  0  0  0  0  0  0  0  0
    0.8602    3.7687    0.0000 C   0  0  0  0  0  0  0  0  0  0  0  0
   -0.5191    3.1792    0.0000 N   0  0  0  0  0  0  0  0  0  0  0  0
   -0.3846    1.6852    0.0000 C   0  0  0  0  0  0  0  0  0  0  0  0
    1.0777    1.3515    0.0000 C   0  0  0  0  0  0  0  0  0  0  0  0
    1.8471    2.6391    0.0000 S   0  0  0  0  0  0  0  0  0  0  0  0
    1.7286    0.0000    0.0000 C   0  0  0  0  0  0  0  0  0  0  0  0
    1.0777   -1.3515    0.0000 C   0  0  0  0  0  0  0  0  0  0  0  0
   -0.3846   -1.6852    0.0000 N   0  0  0  0  0  0  0  0  0  0  0  0
   -0.7184   -3.1476    0.0000 C   0  0  0  0  0  0  0  0  0  0  0  0
   -2.1518   -3.5898    0.0000 C   0  0  0  0  0  0  0  0  0  0  0  0
   -2.4856   -5.0522    0.0000 N   0  0  0  0  0  0  0  0  0  0  0  0
   -3.9189   -5.4943    0.0000 C   0  0  0  0  0  0  0  0  0  0  0  0
   -4.2527   -6.9567    0.0000 C   0  0  0  0  0  0  0  0  0  0  0  0
   -3.1531   -7.9769    0.0000 O   0  0  0  0  0  0  0  0  0  0  0  0
   -1.7198   -7.5348    0.0000 C   0  0  0  0  0  0  0  0  0  0  0  0
   -1.3860   -6.0724    0.0000 C   0  0  0  0  0  0  0  0  0  0  0  0
   -1.5574   -0.7500    0.0000 C   0  0  0  0  0  0  0  0  0  0  0  0
   -1.5574    0.7500    0.0000 C   0  0  0  0  0  0  0  0  0  0  0  0
    3.7269    4.6530    0.0000 N   0  0  0  0  0  0  0  0  0  0  0  0
    5.1603    5.0951    0.0000 C   0  0  0  0  0  0  0  0  0  0  0  0
    5.4940    6.5575    0.0000 C   0  0  0  0  0  0  0  0  0  0  0  0
    6.9274    6.9997    0.0000 Cl  0  0  0  0  0  0  0  0  0  0  0  0
  1  2  1  0
  2  3  1  0
  2  4  1  0
  4  5  2  0
  4  6  2  0
  4  7  1  0
  7  8  2  0
  8  9  1  0
  9 10  2  0
 10 11  1  0
 11 12  2  0
 12 13  1  0
 13 14  1  0
 14 15  2  0
 15 16  1  0
 16 17  1  0
 17 18  1  0
 18 19  2  0
 19 20  1  0
 20 21  2  0
 21 22  1  0
 21 23  1  0
 23 24  1  0
 24 25  1  0
 25 26  1  0
 26 27  1  0
 27 28  1  0
 28 29  1  0
 29 30  1  0
 30 31  1  0
 31 32  1  0
 32 33  1  0
 25 34  1  0
 34 35  1  0
 16 36  2  0
 36 37  1  0
 37 38  2  0
 38 39  1  0
 12  7  1  0
 38 14  1  0
 22 18  1  0
 33 28  1  0
 35 20  1  0
M  END
>  <Compound_ID>  (379) 
CHEMBL3330860

>  <Molecule Name>  (379) 
nan

>  <Molecular Weight>  (379) 
592.19

>  <AlogP>  (379) 
3.99

>  <Smiles>  (379) 
CC(C)S(=O)(=O)c1ccccc1Nc1nc(Nc2nc3c(s2)CCN(CCN2CCOCC2)CC3)ncc1Cl

>  <Standard Type>  (379) 
IC50

>  <Standard Relation>  (379) 
'='

>  <Standard Units>  (379) 
nM

>  <Standard Value>  (379) 
67.8

>  <Assay ChEMBL ID>  (379) 
CHEMBL3383505

>  <Assay Description>  (379) 
Inhibition of purified ALK (unknown origin) after 60 mins by ELISA kinase assay

>  <BAO Format ID>  (379) 
BAO_0000357

>  <BAO Label>  (379) 
single protein format

>  <Assay Organism>  (379) 
Homo sapiens

>  <Target ChEMBL ID>  (379) 
CHEMBL4247

>  <Target Name>  (379) 
ALK tyrosine kinase receptor

>  <Target Organism>  (379) 
Homo sapiens

>  <Target Type>  (379) 
SINGLE PROTEIN

>  <Document ChEMBL ID>  (379) 
CHEMBL3352334

>  <Source Description>  (379) 
Scientific Literature

>  <Document Journal>  (379) 
Eur J Med Chem

>  <Document Year>  (379) 
2014.0

>  <Active>  (379) 
1.0

>  <bits>  (379) 
<rdkit.DataStructs.cDataStructs.ExplicitBitVect object at 0x000002422F231F50>

>  <Group>  (379) 
G2

$$$$

     RDKit          2D

 38 41  0  0  0  0  0  0  0  0999 V2000
   -3.0000   -5.1962    0.0000 C   0  0  0  0  0  0  0  0  0  0  0  0
   -1.5000   -5.1962    0.0000 O   0  0  0  0  0  0  0  0  0  0  0  0
   -0.7500   -3.8971    0.0000 C   0  0  0  0  0  0  0  0  0  0  0  0
   -1.5000   -2.5981    0.0000 C   0  0  0  0  0  0  0  0  0  0  0  0
   -0.7500   -1.2990    0.0000 C   0  0  0  0  0  0  0  0  0  0  0  0
    0.7500   -1.2990    0.0000 C   0  0  0  0  0  0  0  0  0  0  0  0
    1.5000   -2.5981    0.0000 C   0  0  0  0  0  0  0  0  0  0  0  0
    0.7500   -3.8971    0.0000 C   0  0  0  0  0  0  0  0  0  0  0  0
    1.5000   -5.1962    0.0000 N   0  0  0  0  0  0  0  0  0  0  0  0
    0.7500   -6.4952    0.0000 C   0  0  0  0  0  0  0  0  0  0  0  0
   -0.7500   -6.4952    0.0000 N   0  0  0  0  0  0  0  0  0  0  0  0
   -1.5000   -7.7942    0.0000 C   0  0  0  0  0  0  0  0  0  0  0  0
   -0.7500   -9.0933    0.0000 C   0  0  0  0  0  0  0  0  0  0  0  0
   -1.5000  -10.3923    0.0000 Cl  0  0  0  0  0  0  0  0  0  0  0  0
    0.7500   -9.0933    0.0000 C   0  0  0  0  0  0  0  0  0  0  0  0
    1.5000  -10.3923    0.0000 N   0  0  0  0  0  0  0  0  0  0  0  0
    3.0000  -10.3923    0.0000 C   0  0  0  0  0  0  0  0  0  0  0  0
    3.7500   -9.0933    0.0000 C   0  0  0  0  0  0  0  0  0  0  0  0
    5.2500   -9.0933    0.0000 C   0  0  0  0  0  0  0  0  0  0  0  0
    6.0000  -10.3923    0.0000 C   0  0  0  0  0  0  0  0  0  0  0  0
    5.2500  -11.6913    0.0000 C   0  0  0  0  0  0  0  0  0  0  0  0
    3.7500  -11.6913    0.0000 C   0  0  0  0  0  0  0  0  0  0  0  0
    3.0000  -12.9904    0.0000 S   0  0  0  0  0  0  0  0  0  0  0  0
    1.7010  -12.2404    0.0000 O   0  0  0  0  0  0  0  0  0  0  0  0
    4.2990  -13.7404    0.0000 O   0  0  0  0  0  0  0  0  0  0  0  0
    2.2500  -14.2894    0.0000 C   0  0  0  0  0  0  0  0  0  0  0  0
    3.0000  -15.5885    0.0000 C   0  0  0  0  0  0  0  0  0  0  0  0
    0.7500  -14.2894    0.0000 C   0  0  0  0  0  0  0  0  0  0  0  0
    1.5000   -7.7942    0.0000 N   0  0  0  0  0  0  0  0  0  0  0  0
    1.5000    0.0000    0.0000 C   0  0  0  0  0  0  0  0  0  0  0  0
    0.7500    1.2990    0.0000 C   0  0  0  0  0  0  0  0  0  0  0  0
   -0.7500    1.2990    0.0000 N   0  0  0  0  0  0  0  0  0  0  0  0
   -1.5000    2.5981    0.0000 C   0  0  0  0  0  0  0  0  0  0  0  0
   -0.7500    3.8971    0.0000 C   0  0  0  0  0  0  0  0  0  0  0  0
   -1.5000    5.1962    0.0000 N   0  0  0  0  0  0  0  0  0  0  0  0
   -0.7500    6.4952    0.0000 C   0  0  0  0  0  0  0  0  0  0  0  0
   -3.0000    5.1962    0.0000 C   0  0  0  0  0  0  0  0  0  0  0  0
   -1.5000    0.0000    0.0000 C   0  0  0  0  0  0  0  0  0  0  0  0
  1  2  1  0
  2  3  1  0
  3  4  2  0
  4  5  1  0
  5  6  2  0
  6  7  1  0
  7  8  2  0
  8  9  1  0
  9 10  1  0
 10 11  2  0
 11 12  1  0
 12 13  2  0
 13 14  1  0
 13 15  1  0
 15 16  1  0
 16 17  1  0
 17 18  2  0
 18 19  1  0
 19 20  2  0
 20 21  1  0
 21 22  2  0
 22 23  1  0
 23 24  2  0
 23 25  2  0
 23 26  1  0
 26 27  1  0
 26 28  1  0
 15 29  2  0
  6 30  1  0
 30 31  1  0
 31 32  1  0
 32 33  1  0
 33 34  1  0
 34 35  1  0
 35 36  1  0
 35 37  1  0
 32 38  1  0
  8  3  1  0
 29 10  1  0
 38  5  1  0
 22 17  1  0
M  END
>  <Compound_ID>  (380) 
CHEMBL4756562

>  <Molecule Name>  (380) 
nan

>  <Molecular Weight>  (380) 
559.14

>  <AlogP>  (380) 
4.73

>  <Smiles>  (380) 
COc1cc2c(cc1Nc1ncc(Cl)c(Nc3ccccc3S(=O)(=O)C(C)C)n1)CCN(CCN(C)C)C2

>  <Standard Type>  (380) 
IC50

>  <Standard Relation>  (380) 
'='

>  <Standard Units>  (380) 
nM

>  <Standard Value>  (380) 
18.0

>  <Assay ChEMBL ID>  (380) 
CHEMBL4716187

>  <Assay Description>  (380) 
Inhibition of ALK (unknown origin) using peptide substrate incubated for 30 mins in presence of ATP by fluorescence assay

>  <BAO Format ID>  (380) 
BAO_0000357

>  <BAO Label>  (380) 
single protein format

>  <Assay Organism>  (380) 
Homo sapiens

>  <Target ChEMBL ID>  (380) 
CHEMBL4247

>  <Target Name>  (380) 
ALK tyrosine kinase receptor

>  <Target Organism>  (380) 
Homo sapiens

>  <Target Type>  (380) 
SINGLE PROTEIN

>  <Document ChEMBL ID>  (380) 
CHEMBL4715694

>  <Source Description>  (380) 
Scientific Literature

>  <Document Journal>  (380) 
Bioorg Med Chem

>  <Document Year>  (380) 
2016.0

>  <Active>  (380) 
1.0

>  <bits>  (380) 
<rdkit.DataStructs.cDataStructs.ExplicitBitVect object at 0x000002422F231930>

>  <Group>  (380) 
G2

$$$$

     RDKit          2D

 42 45  0  0  0  0  0  0  0  0999 V2000
    3.7500   -1.2990    0.0000 C   0  0  0  0  0  0  0  0  0  0  0  0
    3.0000    0.0000    0.0000 O   0  0  0  0  0  0  0  0  0  0  0  0
    1.5000    0.0000    0.0000 C   0  0  0  0  0  0  0  0  0  0  0  0
    0.7500   -1.2990    0.0000 C   0  0  0  0  0  0  0  0  0  0  0  0
   -0.7500   -1.2990    0.0000 C   0  0  0  0  0  0  0  0  0  0  0  0
   -1.5000   -2.5981    0.0000 C   0  0  0  0  0  0  0  0  0  0  0  0
   -3.0000   -2.5981    0.0000 C   0  0  0  0  0  0  0  0  0  0  0  0
   -3.7500   -3.8971    0.0000 C   0  0  0  0  0  0  0  0  0  0  0  0
   -3.0000   -5.1962    0.0000 N   0  0  0  0  0  0  0  0  0  0  0  0
   -3.7500   -6.4952    0.0000 C   0  0  0  0  0  0  0  0  0  0  0  0
   -3.0000   -7.7942    0.0000 O   0  0  0  0  0  0  0  0  0  0  0  0
   -5.2500   -6.4952    0.0000 C   0  0  0  0  0  0  0  0  0  0  0  0
   -6.0000   -7.7942    0.0000 N   0  0  0  0  0  0  0  0  0  0  0  0
   -7.5000   -7.7942    0.0000 C   0  0  0  0  0  0  0  0  0  0  0  0
   -5.2500   -9.0933    0.0000 C   0  0  0  0  0  0  0  0  0  0  0  0
   -1.5000   -5.1962    0.0000 C   0  0  0  0  0  0  0  0  0  0  0  0
   -0.7500   -3.8971    0.0000 C   0  0  0  0  0  0  0  0  0  0  0  0
   -1.5000    0.0000    0.0000 C   0  0  0  0  0  0  0  0  0  0  0  0
   -3.0000    0.0000    0.0000 C   0  0  0  0  0  0  0  0  0  0  0  0
   -0.7500    1.2990    0.0000 C   0  0  0  0  0  0  0  0  0  0  0  0
    0.7500    1.2990    0.0000 C   0  0  0  0  0  0  0  0  0  0  0  0
    1.5000    2.5981    0.0000 N   0  0  0  0  0  0  0  0  0  0  0  0
    3.0000    2.5981    0.0000 C   0  0  0  0  0  0  0  0  0  0  0  0
    3.7500    1.2990    0.0000 N   0  0  0  0  0  0  0  0  0  0  0  0
    5.2500    1.2990    0.0000 C   0  0  0  0  0  0  0  0  0  0  0  0
    6.0000    2.5981    0.0000 C   0  0  0  0  0  0  0  0  0  0  0  0
    7.5000    2.5981    0.0000 Cl  0  0  0  0  0  0  0  0  0  0  0  0
    5.2500    3.8971    0.0000 C   0  0  0  0  0  0  0  0  0  0  0  0
    6.0000    5.1962    0.0000 N   0  0  0  0  0  0  0  0  0  0  0  0
    5.2500    6.4952    0.0000 C   0  0  0  0  0  0  0  0  0  0  0  0
    3.7500    6.4952    0.0000 C   0  0  0  0  0  0  0  0  0  0  0  0
    3.0000    7.7942    0.0000 C   0  0  0  0  0  0  0  0  0  0  0  0
    3.7500    9.0933    0.0000 C   0  0  0  0  0  0  0  0  0  0  0  0
    5.2500    9.0933    0.0000 C   0  0  0  0  0  0  0  0  0  0  0  0
    6.0000    7.7942    0.0000 C   0  0  0  0  0  0  0  0  0  0  0  0
    7.5000    7.7942    0.0000 S   0  0  0  0  0  0  0  0  0  0  0  0
    7.5000    6.2942    0.0000 O   0  0  0  0  0  0  0  0  0  0  0  0
    7.5000    9.2942    0.0000 O   0  0  0  0  0  0  0  0  0  0  0  0
    9.0000    7.7942    0.0000 C   0  0  0  0  0  0  0  0  0  0  0  0
    9.7500    9.0933    0.0000 C   0  0  0  0  0  0  0  0  0  0  0  0
    9.7500    6.4952    0.0000 C   0  0  0  0  0  0  0  0  0  0  0  0
    3.7500    3.8971    0.0000 N   0  0  0  0  0  0  0  0  0  0  0  0
  1  2  1  0
  2  3  1  0
  3  4  2  0
  4  5  1  0
  5  6  1  0
  6  7  1  0
  7  8  1  0
  8  9  1  0
  9 10  1  0
 10 11  2  0
 10 12  1  0
 12 13  1  0
 13 14  1  0
 13 15  1  0
  9 16  1  0
 16 17  1  0
  5 18  2  0
 18 19  1  0
 18 20  1  0
 20 21  2  0
 21 22  1  0
 22 23  1  0
 23 24  2  0
 24 25  1  0
 25 26  2  0
 26 27  1  0
 26 28  1  0
 28 29  1  0
 29 30  1  0
 30 31  2  0
 31 32  1  0
 32 33  2  0
 33 34  1  0
 34 35  2  0
 35 36  1  0
 36 37  2  0
 36 38  2  0
 36 39  1  0
 39 40  1  0
 39 41  1  0
 28 42  2  0
 21  3  1  0
 42 23  1  0
 17  6  1  0
 35 30  1  0
M  END
>  <Compound_ID>  (381) 
CHEMBL3651827

>  <Molecule Name>  (381) 
nan

>  <Molecular Weight>  (381) 
615.2

>  <AlogP>  (381) 
5.38

>  <Smiles>  (381) 
COc1cc(C2CCN(C(=O)CN(C)C)CC2)c(C)cc1Nc1ncc(Cl)c(Nc2ccccc2S(=O)(=O)C(C)C)n1

>  <Standard Type>  (381) 
IC50

>  <Standard Relation>  (381) 
'='

>  <Standard Units>  (381) 
nM

>  <Standard Value>  (381) 
8.0

>  <Assay ChEMBL ID>  (381) 
CHEMBL3705165

>  <Assay Description>  (381) 
Enzyme Assay: The inhibition of ALK tyrosine kinase activity may be demonstrated using known methods, for example using the recombinant kinase domain of the ALK in analogy to the VEGF-R kinase assay described in J. Wood et al. Cancer Res. 60, 2178-2189 (2000).

>  <BAO Format ID>  (381) 
BAO_0000357

>  <BAO Label>  (381) 
single protein format

>  <Assay Organism>  (381) 
Homo sapiens

>  <Target ChEMBL ID>  (381) 
CHEMBL4247

>  <Target Name>  (381) 
ALK tyrosine kinase receptor

>  <Target Organism>  (381) 
Homo sapiens

>  <Target Type>  (381) 
SINGLE PROTEIN

>  <Document ChEMBL ID>  (381) 
CHEMBL3638924

>  <Source Description>  (381) 
BindingDB Database

>  <Document Journal>  (381) 
nan

>  <Document Year>  (381) 
2013.0

>  <Active>  (381) 
1.0

>  <bits>  (381) 
<rdkit.DataStructs.cDataStructs.ExplicitBitVect object at 0x000002422F2313F0>

>  <Group>  (381) 
G2

$$$$

     RDKit          2D

 42 46  0  0  0  0  0  0  0  0999 V2000
    3.0000    0.0000    0.0000 C   0  0  0  0  0  0  0  0  0  0  0  0
    1.5000    0.0000    0.0000 N   0  0  0  0  0  0  0  0  0  0  0  0
    0.7500   -1.2990    0.0000 C   0  0  0  0  0  0  0  0  0  0  0  0
   -0.7500   -1.2990    0.0000 C   0  0  0  0  0  0  0  0  0  0  0  0
   -1.5000    0.0000    0.0000 N   0  0  0  0  0  0  0  0  0  0  0  0
   -3.0000    0.0000    0.0000 C   0  0  0  0  0  0  0  0  0  0  0  0
   -3.7500    1.2990    0.0000 C   0  0  0  0  0  0  0  0  0  0  0  0
   -5.2500    1.2990    0.0000 C   0  0  0  0  0  0  0  0  0  0  0  0
   -6.0000    0.0000    0.0000 C   0  0  0  0  0  0  0  0  0  0  0  0
   -7.5000    0.0000    0.0000 N   0  0  0  0  0  0  0  0  0  0  0  0
   -8.2500    1.2990    0.0000 C   0  0  0  0  0  0  0  0  0  0  0  0
   -7.5000    2.5981    0.0000 O   0  0  0  0  0  0  0  0  0  0  0  0
   -9.7500    1.2990    0.0000 C   0  0  0  0  0  0  0  0  0  0  0  0
  -10.6317    0.0855    0.0000 C   0  0  0  0  0  0  0  0  0  0  0  0
  -12.0583    0.5490    0.0000 C   0  0  0  0  0  0  0  0  0  0  0  0
  -12.0583    2.0490    0.0000 C   0  0  0  0  0  0  0  0  0  0  0  0
  -10.6317    2.5126    0.0000 N   0  0  0  0  0  0  0  0  0  0  0  0
  -10.1682    3.9391    0.0000 C   0  0  0  0  0  0  0  0  0  0  0  0
   -8.7009    4.2510    0.0000 N   0  0  0  0  0  0  0  0  0  0  0  0
   -8.2374    5.6776    0.0000 C   0  0  0  0  0  0  0  0  0  0  0  0
   -6.7702    5.9895    0.0000 N   0  0  0  0  0  0  0  0  0  0  0  0
   -6.3067    7.4161    0.0000 C   0  0  0  0  0  0  0  0  0  0  0  0
   -4.8394    7.7279    0.0000 C   0  0  0  0  0  0  0  0  0  0  0  0
   -4.3759    9.1545    0.0000 C   0  0  0  0  0  0  0  0  0  0  0  0
   -2.9087    9.4664    0.0000 F   0  0  0  0  0  0  0  0  0  0  0  0
   -5.3796   10.2692    0.0000 C   0  0  0  0  0  0  0  0  0  0  0  0
   -6.8468    9.9574    0.0000 C   0  0  0  0  0  0  0  0  0  0  0  0
   -7.8505   11.0721    0.0000 F   0  0  0  0  0  0  0  0  0  0  0  0
   -7.3104    8.5308    0.0000 C   0  0  0  0  0  0  0  0  0  0  0  0
   -9.2411    6.7923    0.0000 N   0  0  0  0  0  0  0  0  0  0  0  0
  -10.7083    6.4805    0.0000 C   0  0  0  0  0  0  0  0  0  0  0  0
  -11.1718    5.0539    0.0000 C   0  0  0  0  0  0  0  0  0  0  0  0
  -12.6391    4.7420    0.0000 Cl  0  0  0  0  0  0  0  0  0  0  0  0
   -5.2500   -1.2990    0.0000 C   0  0  0  0  0  0  0  0  0  0  0  0
   -3.7500   -1.2990    0.0000 C   0  0  0  0  0  0  0  0  0  0  0  0
   -3.0000   -2.5981    0.0000 C   0  0  0  0  0  0  0  0  0  0  0  0
   -1.5000   -2.5981    0.0000 O   0  0  0  0  0  0  0  0  0  0  0  0
   -3.7500   -3.8971    0.0000 N   0  0  0  0  0  0  0  0  0  0  0  0
   -3.0000   -5.1962    0.0000 C   0  0  0  0  0  0  0  0  0  0  0  0
   -5.2500   -3.8971    0.0000 C   0  0  0  0  0  0  0  0  0  0  0  0
   -0.7500    1.2990    0.0000 C   0  0  0  0  0  0  0  0  0  0  0  0
    0.7500    1.2990    0.0000 C   0  0  0  0  0  0  0  0  0  0  0  0
  1  2  1  0
  2  3  1  0
  3  4  1  0
  4  5  1  0
  5  6  1  0
  6  7  2  0
  7  8  1  0
  8  9  2  0
  9 10  1  0
 10 11  1  0
 11 12  2  0
 13 11  1  6
 13 14  1  0
 14 15  1  0
 15 16  1  0
 16 17  1  0
 17 18  1  0
 18 19  2  0
 19 20  1  0
 20 21  1  0
 21 22  1  0
 22 23  2  0
 23 24  1  0
 24 25  1  0
 24 26  2  0
 26 27  1  0
 27 28  1  0
 27 29  2  0
 20 30  2  0
 30 31  1  0
 31 32  2  0
 32 33  1  0
  9 34  1  0
 34 35  2  0
 35 36  1  0
 36 37  2  0
 36 38  1  0
 38 39  1  0
 38 40  1  0
  5 41  1  0
 41 42  1  0
 42  2  1  0
 35  6  1  0
 17 13  1  0
 32 18  1  0
 29 22  1  0
M  END
>  <Compound_ID>  (382) 
CHEMBL4853913

>  <Molecule Name>  (382) 
nan

>  <Molecular Weight>  (382) 
599.09

>  <AlogP>  (382) 
4.21

>  <Smiles>  (382) 
CN1CCN(c2ccc(NC(=O)[C@@H]3CCCN3c3nc(Nc4cc(F)cc(F)c4)ncc3Cl)cc2C(=O)N(C)C)CC1

>  <Standard Type>  (382) 
IC50

>  <Standard Relation>  (382) 
'='

>  <Standard Units>  (382) 
nM

>  <Standard Value>  (382) 
8.5

>  <Assay ChEMBL ID>  (382) 
CHEMBL4811214

>  <Assay Description>  (382) 
Inhibition of human ALK assessed as decreased enzymatic reactions measured after 1 hr by mobility shift assay

>  <BAO Format ID>  (382) 
BAO_0000357

>  <BAO Label>  (382) 
single protein format

>  <Assay Organism>  (382) 
Homo sapiens

>  <Target ChEMBL ID>  (382) 
CHEMBL4247

>  <Target Name>  (382) 
ALK tyrosine kinase receptor

>  <Target Organism>  (382) 
Homo sapiens

>  <Target Type>  (382) 
SINGLE PROTEIN

>  <Document ChEMBL ID>  (382) 
CHEMBL4808257

>  <Source Description>  (382) 
Scientific Literature

>  <Document Journal>  (382) 
Bioorg Med Chem

>  <Document Year>  (382) 
2021.0

>  <Active>  (382) 
1.0

>  <bits>  (382) 
<rdkit.DataStructs.cDataStructs.ExplicitBitVect object at 0x000002422F231380>

>  <Group>  (382) 
G2

$$$$

     RDKit          2D

 38 41  0  0  0  0  0  0  0  0999 V2000
    6.0000   -2.5981    0.0000 C   0  0  0  0  0  0  0  0  0  0  0  0
    5.2500   -1.2990    0.0000 C   0  0  0  0  0  0  0  0  0  0  0  0
    3.7500   -1.2990    0.0000 N   0  0  0  0  0  0  0  0  0  0  0  0
    3.0000    0.0000    0.0000 C   0  0  0  0  0  0  0  0  0  0  0  0
    3.7500    1.2990    0.0000 O   0  0  0  0  0  0  0  0  0  0  0  0
    1.5000    0.0000    0.0000 N   0  0  0  0  0  0  0  0  0  0  0  0
    0.7500   -1.2990    0.0000 C   0  0  0  0  0  0  0  0  0  0  0  0
   -0.7500   -1.2990    0.0000 C   0  0  0  0  0  0  0  0  0  0  0  0
   -1.5000    0.0000    0.0000 C   0  0  0  0  0  0  0  0  0  0  0  0
   -3.0000    0.0000    0.0000 C   0  0  0  0  0  0  0  0  0  0  0  0
   -3.7500    1.2990    0.0000 C   0  0  0  0  0  0  0  0  0  0  0  0
   -5.2500    1.2990    0.0000 N   0  0  0  0  0  0  0  0  0  0  0  0
   -6.0000    2.5981    0.0000 C   0  0  0  0  0  0  0  0  0  0  0  0
   -5.2500    3.8971    0.0000 N   0  0  0  0  0  0  0  0  0  0  0  0
   -6.0000    5.1962    0.0000 C   0  0  0  0  0  0  0  0  0  0  0  0
   -7.5000    5.1962    0.0000 C   0  0  0  0  0  0  0  0  0  0  0  0
   -8.2500    6.4952    0.0000 Cl  0  0  0  0  0  0  0  0  0  0  0  0
   -8.2500    3.8971    0.0000 C   0  0  0  0  0  0  0  0  0  0  0  0
   -9.7500    3.8971    0.0000 N   0  0  0  0  0  0  0  0  0  0  0  0
  -10.5000    2.5981    0.0000 C   0  0  0  0  0  0  0  0  0  0  0  0
   -9.7500    1.2990    0.0000 C   0  0  0  0  0  0  0  0  0  0  0  0
  -10.5000    0.0000    0.0000 C   0  0  0  0  0  0  0  0  0  0  0  0
  -12.0000    0.0000    0.0000 C   0  0  0  0  0  0  0  0  0  0  0  0
  -12.7500    1.2990    0.0000 C   0  0  0  0  0  0  0  0  0  0  0  0
  -12.0000    2.5981    0.0000 C   0  0  0  0  0  0  0  0  0  0  0  0
  -12.7500    3.8971    0.0000 S   0  0  0  0  0  0  0  0  0  0  0  0
  -14.0490    3.1471    0.0000 O   0  0  0  0  0  0  0  0  0  0  0  0
  -11.4510    4.6471    0.0000 O   0  0  0  0  0  0  0  0  0  0  0  0
  -13.5000    5.1962    0.0000 C   0  0  0  0  0  0  0  0  0  0  0  0
  -12.7500    6.4952    0.0000 C   0  0  0  0  0  0  0  0  0  0  0  0
  -15.0000    5.1962    0.0000 C   0  0  0  0  0  0  0  0  0  0  0  0
   -7.5000    2.5981    0.0000 N   0  0  0  0  0  0  0  0  0  0  0  0
   -3.0000    2.5981    0.0000 C   0  0  0  0  0  0  0  0  0  0  0  0
   -3.7500    3.8971    0.0000 O   0  0  0  0  0  0  0  0  0  0  0  0
   -3.0000    5.1962    0.0000 C   0  0  0  0  0  0  0  0  0  0  0  0
   -1.5000    2.5981    0.0000 C   0  0  0  0  0  0  0  0  0  0  0  0
   -0.7500    1.2990    0.0000 C   0  0  0  0  0  0  0  0  0  0  0  0
    0.7500    1.2990    0.0000 C   0  0  0  0  0  0  0  0  0  0  0  0
  1  2  1  0
  2  3  1  0
  3  4  1  0
  4  5  2  0
  4  6  1  0
  6  7  1  0
  7  8  1  0
  8  9  1  0
  9 10  2  0
 10 11  1  0
 11 12  1  0
 12 13  1  0
 13 14  2  0
 14 15  1  0
 15 16  2  0
 16 17  1  0
 16 18  1  0
 18 19  1  0
 19 20  1  0
 20 21  2  0
 21 22  1  0
 22 23  2  0
 23 24  1  0
 24 25  2  0
 25 26  1  0
 26 27  2  0
 26 28  2  0
 26 29  1  0
 29 30  1  0
 29 31  1  0
 18 32  2  0
 11 33  2  0
 33 34  1  0
 34 35  1  0
 33 36  1  0
 36 37  2  0
 37 38  1  0
 38  6  1  0
 37  9  1  0
 32 13  1  0
 25 20  1  0
M  END
>  <Compound_ID>  (383) 
CHEMBL4762173

>  <Molecule Name>  (383) 
nan

>  <Molecular Weight>  (383) 
559.09

>  <AlogP>  (383) 
4.90

>  <Smiles>  (383) 
CCNC(=O)N1CCc2cc(Nc3ncc(Cl)c(Nc4ccccc4S(=O)(=O)C(C)C)n3)c(OC)cc2C1

>  <Standard Type>  (383) 
IC50

>  <Standard Relation>  (383) 
'='

>  <Standard Units>  (383) 
nM

>  <Standard Value>  (383) 
2.0

>  <Assay ChEMBL ID>  (383) 
CHEMBL4716187

>  <Assay Description>  (383) 
Inhibition of ALK (unknown origin) using peptide substrate incubated for 30 mins in presence of ATP by fluorescence assay

>  <BAO Format ID>  (383) 
BAO_0000357

>  <BAO Label>  (383) 
single protein format

>  <Assay Organism>  (383) 
Homo sapiens

>  <Target ChEMBL ID>  (383) 
CHEMBL4247

>  <Target Name>  (383) 
ALK tyrosine kinase receptor

>  <Target Organism>  (383) 
Homo sapiens

>  <Target Type>  (383) 
SINGLE PROTEIN

>  <Document ChEMBL ID>  (383) 
CHEMBL4715694

>  <Source Description>  (383) 
Scientific Literature

>  <Document Journal>  (383) 
Bioorg Med Chem

>  <Document Year>  (383) 
2016.0

>  <Active>  (383) 
1.0

>  <bits>  (383) 
<rdkit.DataStructs.cDataStructs.ExplicitBitVect object at 0x000002422F230D60>

>  <Group>  (383) 
G2

$$$$

     RDKit          2D

 35 38  0  0  0  0  0  0  0  0999 V2000
   -6.2652  -13.5066    0.0000 C   0  0  0  0  0  0  0  0  0  0  0  0
   -6.1084  -12.0149    0.0000 O   0  0  0  0  0  0  0  0  0  0  0  0
   -4.7381  -11.4047    0.0000 C   0  0  0  0  0  0  0  0  0  0  0  0
   -4.5813   -9.9130    0.0000 C   0  0  0  0  0  0  0  0  0  0  0  0
   -3.2110   -9.3029    0.0000 O   0  0  0  0  0  0  0  0  0  0  0  0
   -3.0542   -7.8111    0.0000 C   0  0  0  0  0  0  0  0  0  0  0  0
   -1.6839   -7.2010    0.0000 C   0  0  0  0  0  0  0  0  0  0  0  0
   -1.5271   -5.7092    0.0000 C   0  0  0  0  0  0  0  0  0  0  0  0
   -2.7406   -4.8275    0.0000 C   0  0  0  0  0  0  0  0  0  0  0  0
   -4.1110   -5.4376    0.0000 C   0  0  0  0  0  0  0  0  0  0  0  0
   -4.2677   -6.9294    0.0000 C   0  0  0  0  0  0  0  0  0  0  0  0
   -5.6381   -7.5395    0.0000 O   0  0  0  0  0  0  0  0  0  0  0  0
   -6.8516   -6.6578    0.0000 C   0  0  0  0  0  0  0  0  0  0  0  0
   -8.2219   -7.2679    0.0000 C   0  0  0  0  0  0  0  0  0  0  0  0
   -6.6948   -5.1660    0.0000 C   0  0  0  0  0  0  0  0  0  0  0  0
   -2.5838   -3.3357    0.0000 C   0  0  0  0  0  0  0  0  0  0  0  0
   -3.7974   -2.4540    0.0000 O   0  0  0  0  0  0  0  0  0  0  0  0
   -1.2135   -2.7256    0.0000 C   0  0  0  0  0  0  0  0  0  0  0  0
   -0.0000   -3.6073    0.0000 C   0  0  0  0  0  0  0  0  0  0  0  0
    1.2135   -2.7256    0.0000 N   0  0  0  0  0  0  0  0  0  0  0  0
    2.6401   -3.1891    0.0000 C   0  0  0  0  0  0  0  0  0  0  0  0
    3.7548   -2.1855    0.0000 C   0  0  0  0  0  0  0  0  0  0  0  0
    5.1814   -2.6490    0.0000 O   0  0  0  0  0  0  0  0  0  0  0  0
    6.2961   -1.6453    0.0000 C   0  0  0  0  0  0  0  0  0  0  0  0
    0.7500   -1.2990    0.0000 C   0  0  0  0  0  0  0  0  0  0  0  0
    1.5000    0.0000    0.0000 C   0  0  0  0  0  0  0  0  0  0  0  0
    0.7500    1.2990    0.0000 C   0  0  0  0  0  0  0  0  0  0  0  0
    1.5000    2.5981    0.0000 C   0  0  0  0  0  0  0  0  0  0  0  0
    2.2500    3.8971    0.0000 N   0  0  0  0  0  0  0  0  0  0  0  0
   -0.7500    1.2990    0.0000 C   0  0  0  0  0  0  0  0  0  0  0  0
   -1.5000    0.0000    0.0000 C   0  0  0  0  0  0  0  0  0  0  0  0
   -0.7500   -1.2990    0.0000 C   0  0  0  0  0  0  0  0  0  0  0  0
   -0.1568   -5.0991    0.0000 C   0  0  0  0  0  0  0  0  0  0  0  0
    0.2061   -6.5545    0.0000 C   0  0  0  0  0  0  0  0  0  0  0  0
    1.3396   -4.9944    0.0000 C   0  0  0  0  0  0  0  0  0  0  0  0
  1  2  1  0
  2  3  1  0
  3  4  1  0
  4  5  1  0
  5  6  1  0
  6  7  2  0
  7  8  1  0
  8  9  2  0
  9 10  1  0
 10 11  2  0
 11 12  1  0
 12 13  1  0
 13 14  1  0
 13 15  1  0
  9 16  1  0
 16 17  2  0
 16 18  1  0
 18 19  2  0
 19 20  1  0
 20 21  1  0
 21 22  1  0
 22 23  1  0
 23 24  1  0
 20 25  1  0
 25 26  2  0
 26 27  1  0
 27 28  1  0
 28 29  3  0
 27 30  2  0
 30 31  1  0
 31 32  2  0
 19 33  1  0
 33 34  1  0
 33 35  1  0
 11  6  1  0
 32 18  1  0
 33  8  1  0
 32 25  1  0
M  END
>  <Compound_ID>  (384) 
CHEMBL3975525

>  <Molecule Name>  (384) 
nan

>  <Molecular Weight>  (384) 
476.57

>  <AlogP>  (384) 
4.84

>  <Smiles>  (384) 
COCCOc1cc2c(cc1OC(C)C)C(=O)c1c(n(CCOC)c3cc(C#N)ccc13)C2(C)C

>  <Standard Type>  (384) 
IC50

>  <Standard Relation>  (384) 
'='

>  <Standard Units>  (384) 
nM

>  <Standard Value>  (384) 
9.9

>  <Assay ChEMBL ID>  (384) 
CHEMBL3887074

>  <Assay Description>  (384) 
Inhibition Assay: ALK-inhibiting activity was measured by following an activity of inhibiting phosphorylation by biotinylated peptide (EGPWLEEEEEAYGWMDF). For the detection of phosphorylation of the biotinylated peptide, time-resolved fluorescence measurement was performed using an anti-phosphorylated tyrosine antibody labeled with europium cryptate and streptavidin conjugated to XL665, i.e., an allophycocyanin derivative.

>  <BAO Format ID>  (384) 
BAO_0000357

>  <BAO Label>  (384) 
single protein format

>  <Assay Organism>  (384) 
Homo sapiens

>  <Target ChEMBL ID>  (384) 
CHEMBL4247

>  <Target Name>  (384) 
ALK tyrosine kinase receptor

>  <Target Organism>  (384) 
Homo sapiens

>  <Target Type>  (384) 
SINGLE PROTEIN

>  <Document ChEMBL ID>  (384) 
CHEMBL3886150

>  <Source Description>  (384) 
BindingDB Database

>  <Document Journal>  (384) 
nan

>  <Document Year>  (384) 
2015.0

>  <Active>  (384) 
1.0

>  <bits>  (384) 
<rdkit.DataStructs.cDataStructs.ExplicitBitVect object at 0x000002422F230C80>

>  <Group>  (384) 
G2

$$$$

     RDKit          2D

 41 45  0  0  0  0  0  0  0  0999 V2000
    5.2500   -6.4952    0.0000 C   0  0  0  0  0  0  0  0  0  0  0  0
    3.7500   -6.4952    0.0000 C   0  0  0  0  0  0  0  0  0  0  0  0
    3.0000   -7.7942    0.0000 C   0  0  0  0  0  0  0  0  0  0  0  0
    3.0000   -5.1962    0.0000 O   0  0  0  0  0  0  0  0  0  0  0  0
    1.5000   -5.1962    0.0000 C   0  0  0  0  0  0  0  0  0  0  0  0
    0.7500   -6.4952    0.0000 C   0  0  0  0  0  0  0  0  0  0  0  0
   -0.7500   -6.4952    0.0000 C   0  0  0  0  0  0  0  0  0  0  0  0
   -1.5000   -7.7942    0.0000 C   0  0  0  0  0  0  0  0  0  0  0  0
   -3.0000   -7.7942    0.0000 C   0  0  0  0  0  0  0  0  0  0  0  0
   -3.7500   -9.0933    0.0000 C   0  0  0  0  0  0  0  0  0  0  0  0
   -3.0000  -10.3923    0.0000 N   0  0  0  0  0  0  0  0  0  0  0  0
   -3.7500  -11.6913    0.0000 C   0  0  0  0  0  0  0  0  0  0  0  0
   -1.5000  -10.3923    0.0000 C   0  0  0  0  0  0  0  0  0  0  0  0
   -0.7500   -9.0933    0.0000 C   0  0  0  0  0  0  0  0  0  0  0  0
   -1.5000   -5.1962    0.0000 C   0  0  0  0  0  0  0  0  0  0  0  0
   -0.7500   -3.8971    0.0000 C   0  0  0  0  0  0  0  0  0  0  0  0
    0.7500   -3.8971    0.0000 C   0  0  0  0  0  0  0  0  0  0  0  0
    1.5000   -2.5981    0.0000 N   0  0  0  0  0  0  0  0  0  0  0  0
    0.7500   -1.2990    0.0000 C   0  0  0  0  0  0  0  0  0  0  0  0
    1.5000    0.0000    0.0000 N   0  0  0  0  0  0  0  0  0  0  0  0
    0.7500    1.2990    0.0000 C   0  0  0  0  0  0  0  0  0  0  0  0
   -0.7500    1.2990    0.0000 C   0  0  0  0  0  0  0  0  0  0  0  0
   -1.7537    2.4138    0.0000 S   0  0  0  0  0  0  0  0  0  0  0  0
   -3.1240    1.8037    0.0000 C   0  0  0  0  0  0  0  0  0  0  0  0
   -4.4231    2.5537    0.0000 C   0  0  0  0  0  0  0  0  0  0  0  0
   -4.4231    4.0537    0.0000 N   0  0  0  0  0  0  0  0  0  0  0  0
   -5.7221    1.8037    0.0000 O   0  0  0  0  0  0  0  0  0  0  0  0
   -2.9672    0.3119    0.0000 C   0  0  0  0  0  0  0  0  0  0  0  0
   -4.0819   -0.6918    0.0000 C   0  0  0  0  0  0  0  0  0  0  0  0
   -5.5085   -0.2283    0.0000 C   0  0  0  0  0  0  0  0  0  0  0  0
   -6.6232   -1.2320    0.0000 C   0  0  0  0  0  0  0  0  0  0  0  0
   -6.3114   -2.6992    0.0000 C   0  0  0  0  0  0  0  0  0  0  0  0
   -4.8848   -3.1627    0.0000 C   0  0  0  0  0  0  0  0  0  0  0  0
   -3.7701   -2.1590    0.0000 C   0  0  0  0  0  0  0  0  0  0  0  0
   -2.3435   -2.6226    0.0000 O   0  0  0  0  0  0  0  0  0  0  0  0
   -1.2288   -1.6189    0.0000 C   0  0  0  0  0  0  0  0  0  0  0  0
   -0.1141   -0.6152    0.0000 F   0  0  0  0  0  0  0  0  0  0  0  0
   -0.2251   -2.7336    0.0000 F   0  0  0  0  0  0  0  0  0  0  0  0
   -2.2325   -0.5042    0.0000 F   0  0  0  0  0  0  0  0  0  0  0  0
   -1.5000    0.0000    0.0000 C   0  0  0  0  0  0  0  0  0  0  0  0
   -0.7500   -1.2990    0.0000 N   0  0  0  0  0  0  0  0  0  0  0  0
  1  2  1  0
  2  3  1  0
  2  4  1  0
  4  5  1  0
  5  6  2  0
  6  7  1  0
  7  8  1  0
  8  9  1  0
  9 10  1  0
 10 11  1  0
 11 12  1  0
 11 13  1  0
 13 14  1  0
  7 15  2  0
 15 16  1  0
 16 17  2  0
 17 18  1  0
 18 19  1  0
 19 20  2  0
 20 21  1  0
 21 22  2  0
 22 23  1  0
 23 24  1  0
 24 25  1  0
 25 26  1  0
 25 27  2  0
 24 28  2  0
 28 29  1  0
 29 30  2  0
 30 31  1  0
 31 32  2  0
 32 33  1  0
 33 34  2  0
 34 35  1  0
 35 36  1  0
 36 37  1  0
 36 38  1  0
 36 39  1  0
 28 40  1  0
 40 41  2  0
 17  5  1  0
 41 19  1  0
 14  8  1  0
 40 22  1  0
 34 29  1  0
M  END
>  <Compound_ID>  (385) 
CHEMBL3669137

>  <Molecule Name>  (385) 
nan

>  <Molecular Weight>  (385) 
585.65

>  <AlogP>  (385) 
6.70

>  <Smiles>  (385) 
CC(C)Oc1cc(C2CCN(C)CC2)ccc1Nc1ncc2sc(C(N)=O)c(-c3ccccc3OC(F)(F)F)c2n1

>  <Standard Type>  (385) 
IC50

>  <Standard Relation>  (385) 
'='

>  <Standard Units>  (385) 
nM

>  <Standard Value>  (385) 
0.5

>  <Assay ChEMBL ID>  (385) 
CHEMBL3705810

>  <Assay Description>  (385) 
In Vitro Inhibition Assay: The reagents used have the following composition: Enzyme buffer (EB): 50 mM HEPES (pH: 7.0) (Sigma H7523), 100 mM NaCl (Sigma S7653), NaN.sub.3 at 0.01% (Sigma S8032), BSA at 0.005% (Sigma A2153), 0.05 mM sodium orthovanadate (Calbiochem 567540). Detection buffer (DB): 50 mM HEPES (pH: 7.0), BSA at 0.1%, 0.8 M KF (Fluka 60239), 20 mM EDTA (Sigma E5134).The peptide used is the one described in Biochemistry, 2005, 44, 8533-8542; A-21-K(biotin)NH.sub.2, obtained from NeoMPS (reference SP081233). All the HTRF reagents Mab PT66-K (61T66KLB) and streptavidin-XL665 (610SAXLB), and the SEB reagent, are purchased from Cisbio.The test is carried out in a 384-well plate (Greiner 784076). The serial dilutions are carried out in pure DMSO, and then an intermediate one-in-three dilution in water is carried out, with 1 microliter of each concentration being distributed, all these operations being performed using the Zephyr apparatus (Caliper Life Sciences).

>  <BAO Format ID>  (385) 
BAO_0000357

>  <BAO Label>  (385) 
single protein format

>  <Assay Organism>  (385) 
Homo sapiens

>  <Target ChEMBL ID>  (385) 
CHEMBL4247

>  <Target Name>  (385) 
ALK tyrosine kinase receptor

>  <Target Organism>  (385) 
Homo sapiens

>  <Target Type>  (385) 
SINGLE PROTEIN

>  <Document ChEMBL ID>  (385) 
CHEMBL3639289

>  <Source Description>  (385) 
BindingDB Database

>  <Document Journal>  (385) 
nan

>  <Document Year>  (385) 
2015.0

>  <Active>  (385) 
1.0

>  <bits>  (385) 
<rdkit.DataStructs.cDataStructs.ExplicitBitVect object at 0x000002422F233ED0>

>  <Group>  (385) 
G2

$$$$

     RDKit          2D

 49 54  0  0  0  0  0  0  0  0999 V2000
    0.5271    8.0861    0.0000 C   0  0  0  0  0  0  0  0  0  0  0  0
   -0.8995    7.6226    0.0000 C   0  0  0  0  0  0  0  0  0  0  0  0
   -1.2114    6.1554    0.0000 C   0  0  0  0  0  0  0  0  0  0  0  0
   -2.6380    5.6918    0.0000 C   0  0  0  0  0  0  0  0  0  0  0  0
   -2.9499    4.2246    0.0000 N   0  0  0  0  0  0  0  0  0  0  0  0
   -1.8351    3.2209    0.0000 C   0  0  0  0  0  0  0  0  0  0  0  0
   -0.4086    3.6844    0.0000 N   0  0  0  0  0  0  0  0  0  0  0  0
    0.7062    2.6807    0.0000 C   0  0  0  0  0  0  0  0  0  0  0  0
    2.1328    3.1443    0.0000 N   0  0  0  0  0  0  0  0  0  0  0  0
    2.4446    4.6115    0.0000 C   0  0  0  0  0  0  0  0  0  0  0  0
    1.3299    5.6152    0.0000 C   0  0  0  0  0  0  0  0  0  0  0  0
    1.6418    7.0824    0.0000 C   0  0  0  0  0  0  0  0  0  0  0  0
    3.0684    7.5459    0.0000 C   0  0  0  0  0  0  0  0  0  0  0  0
    4.1831    6.5422    0.0000 C   0  0  0  0  0  0  0  0  0  0  0  0
    3.8712    5.0750    0.0000 C   0  0  0  0  0  0  0  0  0  0  0  0
    4.9859    4.0713    0.0000 S   0  0  0  0  0  0  0  0  0  0  0  0
    3.9822    2.9566    0.0000 O   0  0  0  0  0  0  0  0  0  0  0  0
    5.9896    5.1860    0.0000 O   0  0  0  0  0  0  0  0  0  0  0  0
    6.1006    3.0676    0.0000 C   0  0  0  0  0  0  0  0  0  0  0  0
    5.7888    1.6004    0.0000 C   0  0  0  0  0  0  0  0  0  0  0  0
    7.5272    3.5312    0.0000 C   0  0  0  0  0  0  0  0  0  0  0  0
    0.3943    1.2135    0.0000 C   0  0  0  0  0  0  0  0  0  0  0  0
    1.2760    0.0000    0.0000 C   0  0  0  0  0  0  0  0  0  0  0  0
    2.7760    0.0000    0.0000 C   0  0  0  0  0  0  0  0  0  0  0  0
    0.3943   -1.2135    0.0000 N   0  0  0  0  0  0  0  0  0  0  0  0
   -1.0323   -0.7500    0.0000 N   0  0  0  0  0  0  0  0  0  0  0  0
   -1.0323    0.7500    0.0000 C   0  0  0  0  0  0  0  0  0  0  0  0
   -2.1470    1.7537    0.0000 N   0  0  0  0  0  0  0  0  0  0  0  0
   -3.7527    6.6955    0.0000 C   0  0  0  0  0  0  0  0  0  0  0  0
   -5.1793    6.2320    0.0000 O   0  0  0  0  0  0  0  0  0  0  0  0
   -6.2940    7.2357    0.0000 C   0  0  0  0  0  0  0  0  0  0  0  0
   -7.7206    6.7722    0.0000 C   0  0  0  0  0  0  0  0  0  0  0  0
   -5.9821    8.7029    0.0000 C   0  0  0  0  0  0  0  0  0  0  0  0
   -3.4408    8.1628    0.0000 C   0  0  0  0  0  0  0  0  0  0  0  0
   -2.0143    8.6263    0.0000 C   0  0  0  0  0  0  0  0  0  0  0  0
   -1.7024   10.0935    0.0000 C   0  0  0  0  0  0  0  0  0  0  0  0
   -0.2758   10.5570    0.0000 C   0  0  0  0  0  0  0  0  0  0  0  0
    0.0361   12.0242    0.0000 C   0  0  0  0  0  0  0  0  0  0  0  0
   -1.0786   13.0279    0.0000 N   0  0  0  0  0  0  0  0  0  0  0  0
   -0.7668   14.4952    0.0000 C   0  0  0  0  0  0  0  0  0  0  0  0
   -1.8815   15.4989    0.0000 O   0  0  0  0  0  0  0  0  0  0  0  0
    0.6598   14.9587    0.0000 C   0  0  0  0  0  0  0  0  0  0  0  0
    0.9717   16.4259    0.0000 N   0  0  0  0  0  0  0  0  0  0  0  0
   -0.0320   17.5406    0.0000 C   0  0  0  0  0  0  0  0  0  0  0  0
    0.7180   18.8397    0.0000 C   0  0  0  0  0  0  0  0  0  0  0  0
    2.1852   18.5278    0.0000 C   0  0  0  0  0  0  0  0  0  0  0  0
    2.3420   17.0360    0.0000 N   0  0  0  0  0  0  0  0  0  0  0  0
   -2.5052   12.5644    0.0000 C   0  0  0  0  0  0  0  0  0  0  0  0
   -2.8171   11.0972    0.0000 C   0  0  0  0  0  0  0  0  0  0  0  0
  1  2  1  0
  2  3  2  0
  3  4  1  0
  4  5  1  0
  5  6  1  0
  6  7  1  0
  7  8  2  0
  8  9  1  0
  9 10  1  0
 10 11  2  0
 11 12  1  0
 12 13  2  0
 13 14  1  0
 14 15  2  0
 15 16  1  0
 16 17  2  0
 16 18  2  0
 16 19  1  0
 19 20  1  0
 19 21  1  0
  8 22  1  0
 22 23  2  0
 23 24  1  0
 23 25  1  0
 25 26  1  0
 26 27  2  0
 27 28  1  0
  4 29  2  0
 29 30  1  0
 30 31  1  0
 31 32  1  0
 31 33  1  0
 29 34  1  0
 34 35  2  0
 35 36  1  0
 36 37  1  0
 37 38  1  0
 38 39  1  0
 39 40  1  0
 40 41  2  0
 40 42  1  0
 42 43  1  0
 43 44  1  0
 44 45  2  0
 45 46  1  0
 46 47  2  0
 39 48  1  0
 48 49  1  0
 35  2  1  0
 49 36  1  0
 28  6  2  0
 47 43  1  0
 15 10  1  0
 27 22  1  0
M  END
>  <Compound_ID>  (386) 
CHEMBL3651849

>  <Molecule Name>  (386) 
nan

>  <Molecular Weight>  (386) 
685.85

>  <AlogP>  (386) 
6.03

>  <Smiles>  (386) 
Cc1cc(Nc2nc(Nc3ccccc3S(=O)(=O)C(C)C)c3c(C)[nH]nc3n2)c(OC(C)C)cc1C1CCN(C(=O)Cn2cccn2)CC1

>  <Standard Type>  (386) 
IC50

>  <Standard Relation>  (386) 
'='

>  <Standard Units>  (386) 
nM

>  <Standard Value>  (386) 
22.0

>  <Assay ChEMBL ID>  (386) 
CHEMBL3705165

>  <Assay Description>  (386) 
Enzyme Assay: The inhibition of ALK tyrosine kinase activity may be demonstrated using known methods, for example using the recombinant kinase domain of the ALK in analogy to the VEGF-R kinase assay described in J. Wood et al. Cancer Res. 60, 2178-2189 (2000).

>  <BAO Format ID>  (386) 
BAO_0000357

>  <BAO Label>  (386) 
single protein format

>  <Assay Organism>  (386) 
Homo sapiens

>  <Target ChEMBL ID>  (386) 
CHEMBL4247

>  <Target Name>  (386) 
ALK tyrosine kinase receptor

>  <Target Organism>  (386) 
Homo sapiens

>  <Target Type>  (386) 
SINGLE PROTEIN

>  <Document ChEMBL ID>  (386) 
CHEMBL3638924

>  <Source Description>  (386) 
BindingDB Database

>  <Document Journal>  (386) 
nan

>  <Document Year>  (386) 
2013.0

>  <Active>  (386) 
1.0

>  <bits>  (386) 
<rdkit.DataStructs.cDataStructs.ExplicitBitVect object at 0x000002422F232D50>

>  <Group>  (386) 
G2

$$$$

     RDKit          2D

 45 52  0  0  0  0  0  0  0  0999 V2000
    1.3396   -4.9944    0.0000 C   0  0  0  0  0  0  0  0  0  0  0  0
   -0.1568   -5.0991    0.0000 C   0  0  0  0  0  0  0  0  0  0  0  0
    0.2061   -6.5545    0.0000 C   0  0  0  0  0  0  0  0  0  0  0  0
   -1.5271   -5.7092    0.0000 C   0  0  0  0  0  0  0  0  0  0  0  0
   -1.6839   -7.2010    0.0000 C   0  0  0  0  0  0  0  0  0  0  0  0
   -3.0542   -7.8111    0.0000 C   0  0  0  0  0  0  0  0  0  0  0  0
   -3.2110   -9.3029    0.0000 N   0  0  0  0  0  0  0  0  0  0  0  0
   -4.5813   -9.9130    0.0000 C   0  0  0  0  0  0  0  0  0  0  0  0
   -4.7381  -11.4047    0.0000 C   0  0  0  0  0  0  0  0  0  0  0  0
   -3.5246  -12.2864    0.0000 N   0  0  0  0  0  0  0  0  0  0  0  0
   -3.6814  -13.7782    0.0000 C   0  0  0  0  0  0  0  0  0  0  0  0
   -4.8471  -14.7222    0.0000 C   0  0  0  0  0  0  0  0  0  0  0  0
   -3.9031  -15.8879    0.0000 O   0  0  0  0  0  0  0  0  0  0  0  0
   -2.7374  -14.9439    0.0000 C   0  0  0  0  0  0  0  0  0  0  0  0
   -2.1543  -11.6763    0.0000 C   0  0  0  0  0  0  0  0  0  0  0  0
   -1.9975  -10.1845    0.0000 C   0  0  0  0  0  0  0  0  0  0  0  0
   -4.2677   -6.9294    0.0000 C   0  0  0  0  0  0  0  0  0  0  0  0
   -5.6381   -7.5395    0.0000 C   0  0  0  0  0  0  0  0  0  0  0  0
   -7.0084   -8.1496    0.0000 C   0  0  0  0  0  0  0  0  0  0  0  0
   -8.3787   -8.7597    0.0000 C   0  0  0  0  0  0  0  0  0  0  0  0
   -9.5922   -7.8780    0.0000 N   0  0  0  0  0  0  0  0  0  0  0  0
   -9.4354   -6.3863    0.0000 C   0  0  0  0  0  0  0  0  0  0  0  0
  -10.6490   -5.5046    0.0000 C   0  0  0  0  0  0  0  0  0  0  0  0
  -12.0193   -6.1147    0.0000 N   0  0  0  0  0  0  0  0  0  0  0  0
  -13.2328   -5.2330    0.0000 C   0  0  0  0  0  0  0  0  0  0  0  0
  -13.4675   -3.7515    0.0000 C   0  0  0  0  0  0  0  0  0  0  0  0
  -14.9490   -3.9861    0.0000 O   0  0  0  0  0  0  0  0  0  0  0  0
  -14.7143   -5.4677    0.0000 C   0  0  0  0  0  0  0  0  0  0  0  0
  -12.1761   -7.6065    0.0000 C   0  0  0  0  0  0  0  0  0  0  0  0
  -10.9625   -8.4881    0.0000 C   0  0  0  0  0  0  0  0  0  0  0  0
   -4.1110   -5.4376    0.0000 C   0  0  0  0  0  0  0  0  0  0  0  0
   -2.7406   -4.8275    0.0000 C   0  0  0  0  0  0  0  0  0  0  0  0
   -2.5838   -3.3357    0.0000 C   0  0  0  0  0  0  0  0  0  0  0  0
   -3.7974   -2.4540    0.0000 O   0  0  0  0  0  0  0  0  0  0  0  0
   -1.2135   -2.7256    0.0000 C   0  0  0  0  0  0  0  0  0  0  0  0
   -0.0000   -3.6073    0.0000 C   0  0  0  0  0  0  0  0  0  0  0  0
    1.2135   -2.7256    0.0000 N   0  0  0  0  0  0  0  0  0  0  0  0
    0.7500   -1.2990    0.0000 C   0  0  0  0  0  0  0  0  0  0  0  0
    1.5000    0.0000    0.0000 C   0  0  0  0  0  0  0  0  0  0  0  0
    0.7500    1.2990    0.0000 C   0  0  0  0  0  0  0  0  0  0  0  0
    1.5000    2.5981    0.0000 C   0  0  0  0  0  0  0  0  0  0  0  0
    2.2500    3.8971    0.0000 N   0  0  0  0  0  0  0  0  0  0  0  0
   -0.7500    1.2990    0.0000 C   0  0  0  0  0  0  0  0  0  0  0  0
   -1.5000    0.0000    0.0000 C   0  0  0  0  0  0  0  0  0  0  0  0
   -0.7500   -1.2990    0.0000 C   0  0  0  0  0  0  0  0  0  0  0  0
  1  2  1  0
  2  3  1  0
  2  4  1  0
  4  5  2  0
  5  6  1  0
  6  7  1  0
  7  8  1  0
  8  9  1  0
  9 10  1  0
 10 11  1  0
 11 12  1  0
 12 13  1  0
 13 14  1  0
 10 15  1  0
 15 16  1  0
  6 17  2  0
 17 18  1  0
 18 19  3  0
 19 20  1  0
 20 21  1  0
 21 22  1  0
 22 23  1  0
 23 24  1  0
 24 25  1  0
 25 26  1  0
 26 27  1  0
 27 28  1  0
 24 29  1  0
 29 30  1  0
 17 31  1  0
 31 32  2  0
 32 33  1  0
 33 34  2  0
 33 35  1  0
 35 36  2  0
 36 37  1  0
 37 38  1  0
 38 39  2  0
 39 40  1  0
 40 41  1  0
 41 42  3  0
 40 43  2  0
 43 44  1  0
 44 45  2  0
 36  2  1  0
 45 38  1  0
 32  4  1  0
 45 35  1  0
 16  7  1  0
 30 21  1  0
 14 11  1  0
 28 25  1  0
M  END
>  <Compound_ID>  (387) 
CHEMBL3920411

>  <Molecule Name>  (387) 
nan

>  <Molecular Weight>  (387) 
604.76

>  <AlogP>  (387) 
2.80

>  <Smiles>  (387) 
CC1(C)c2cc(N3CCN(C4COC4)CC3)c(C#CCN3CCN(C4COC4)CC3)cc2C(=O)c2c1[nH]c1cc(C#N)ccc21

>  <Standard Type>  (387) 
IC50

>  <Standard Relation>  (387) 
'='

>  <Standard Units>  (387) 
nM

>  <Standard Value>  (387) 
0.996

>  <Assay ChEMBL ID>  (387) 
CHEMBL3887074

>  <Assay Description>  (387) 
Inhibition Assay: ALK-inhibiting activity was measured by following an activity of inhibiting phosphorylation by biotinylated peptide (EGPWLEEEEEAYGWMDF). For the detection of phosphorylation of the biotinylated peptide, time-resolved fluorescence measurement was performed using an anti-phosphorylated tyrosine antibody labeled with europium cryptate and streptavidin conjugated to XL665, i.e., an allophycocyanin derivative.

>  <BAO Format ID>  (387) 
BAO_0000357

>  <BAO Label>  (387) 
single protein format

>  <Assay Organism>  (387) 
Homo sapiens

>  <Target ChEMBL ID>  (387) 
CHEMBL4247

>  <Target Name>  (387) 
ALK tyrosine kinase receptor

>  <Target Organism>  (387) 
Homo sapiens

>  <Target Type>  (387) 
SINGLE PROTEIN

>  <Document ChEMBL ID>  (387) 
CHEMBL3886150

>  <Source Description>  (387) 
BindingDB Database

>  <Document Journal>  (387) 
nan

>  <Document Year>  (387) 
2015.0

>  <Active>  (387) 
1.0

>  <bits>  (387) 
<rdkit.DataStructs.cDataStructs.ExplicitBitVect object at 0x000002422F232960>

>  <Group>  (387) 
G2

$$$$

     RDKit          2D

 41 45  0  0  0  0  0  0  0  0999 V2000
    0.5271    8.0861    0.0000 C   0  0  0  0  0  0  0  0  0  0  0  0
   -0.8995    7.6226    0.0000 C   0  0  0  0  0  0  0  0  0  0  0  0
   -1.2114    6.1554    0.0000 C   0  0  0  0  0  0  0  0  0  0  0  0
   -2.6380    5.6918    0.0000 C   0  0  0  0  0  0  0  0  0  0  0  0
   -2.9499    4.2246    0.0000 N   0  0  0  0  0  0  0  0  0  0  0  0
   -1.8351    3.2209    0.0000 C   0  0  0  0  0  0  0  0  0  0  0  0
   -0.4086    3.6844    0.0000 N   0  0  0  0  0  0  0  0  0  0  0  0
    0.7062    2.6807    0.0000 C   0  0  0  0  0  0  0  0  0  0  0  0
    2.1328    3.1443    0.0000 N   0  0  0  0  0  0  0  0  0  0  0  0
    2.4446    4.6115    0.0000 C   0  0  0  0  0  0  0  0  0  0  0  0
    1.3299    5.6152    0.0000 C   0  0  0  0  0  0  0  0  0  0  0  0
    1.6418    7.0824    0.0000 C   0  0  0  0  0  0  0  0  0  0  0  0
    3.0684    7.5459    0.0000 C   0  0  0  0  0  0  0  0  0  0  0  0
    4.1831    6.5422    0.0000 C   0  0  0  0  0  0  0  0  0  0  0  0
    3.8712    5.0750    0.0000 C   0  0  0  0  0  0  0  0  0  0  0  0
    4.9859    4.0713    0.0000 S   0  0  0  0  0  0  0  0  0  0  0  0
    3.9822    2.9566    0.0000 O   0  0  0  0  0  0  0  0  0  0  0  0
    5.9896    5.1860    0.0000 O   0  0  0  0  0  0  0  0  0  0  0  0
    6.1006    3.0676    0.0000 C   0  0  0  0  0  0  0  0  0  0  0  0
    5.7888    1.6004    0.0000 C   0  0  0  0  0  0  0  0  0  0  0  0
    7.5272    3.5312    0.0000 C   0  0  0  0  0  0  0  0  0  0  0  0
    0.3943    1.2135    0.0000 C   0  0  0  0  0  0  0  0  0  0  0  0
    1.2760    0.0000    0.0000 C   0  0  0  0  0  0  0  0  0  0  0  0
    2.7760    0.0000    0.0000 C   0  0  0  0  0  0  0  0  0  0  0  0
    0.3943   -1.2135    0.0000 N   0  0  0  0  0  0  0  0  0  0  0  0
   -1.0323   -0.7500    0.0000 N   0  0  0  0  0  0  0  0  0  0  0  0
   -1.0323    0.7500    0.0000 C   0  0  0  0  0  0  0  0  0  0  0  0
   -2.1470    1.7537    0.0000 N   0  0  0  0  0  0  0  0  0  0  0  0
   -3.7527    6.6955    0.0000 C   0  0  0  0  0  0  0  0  0  0  0  0
   -5.1793    6.2320    0.0000 O   0  0  0  0  0  0  0  0  0  0  0  0
   -6.2940    7.2357    0.0000 C   0  0  0  0  0  0  0  0  0  0  0  0
   -7.7206    6.7722    0.0000 C   0  0  0  0  0  0  0  0  0  0  0  0
   -5.9821    8.7029    0.0000 C   0  0  0  0  0  0  0  0  0  0  0  0
   -3.4408    8.1628    0.0000 C   0  0  0  0  0  0  0  0  0  0  0  0
   -2.0143    8.6263    0.0000 C   0  0  0  0  0  0  0  0  0  0  0  0
   -1.7024   10.0935    0.0000 C   0  0  0  0  0  0  0  0  0  0  0  0
   -0.2758   10.5570    0.0000 C   0  0  0  0  0  0  0  0  0  0  0  0
    0.0361   12.0242    0.0000 C   0  0  0  0  0  0  0  0  0  0  0  0
   -1.0786   13.0279    0.0000 N   0  0  0  0  0  0  0  0  0  0  0  0
   -2.5052   12.5644    0.0000 C   0  0  0  0  0  0  0  0  0  0  0  0
   -2.8171   11.0972    0.0000 C   0  0  0  0  0  0  0  0  0  0  0  0
  1  2  1  0
  2  3  2  0
  3  4  1  0
  4  5  1  0
  5  6  1  0
  6  7  2  0
  7  8  1  0
  8  9  1  0
  9 10  1  0
 10 11  2  0
 11 12  1  0
 12 13  2  0
 13 14  1  0
 14 15  2  0
 15 16  1  0
 16 17  2  0
 16 18  2  0
 16 19  1  0
 19 20  1  0
 19 21  1  0
  8 22  2  0
 22 23  1  0
 23 24  1  0
 23 25  2  0
 25 26  1  0
 26 27  1  0
 27 28  2  0
  4 29  2  0
 29 30  1  0
 30 31  1  0
 31 32  1  0
 31 33  1  0
 29 34  1  0
 34 35  2  0
 35 36  1  0
 36 37  1  0
 37 38  1  0
 38 39  1  0
 39 40  1  0
 40 41  1  0
 35  2  1  0
 41 36  1  0
 28  6  1  0
 15 10  1  0
 27 22  1  0
M  END
>  <Compound_ID>  (388) 
CHEMBL4762861

>  <Molecule Name>  (388) 
nan

>  <Molecular Weight>  (388) 
577.76

>  <AlogP>  (388) 
5.89

>  <Smiles>  (388) 
Cc1cc(Nc2nc(Nc3ccccc3S(=O)(=O)C(C)C)c3c(C)n[nH]c3n2)c(OC(C)C)cc1C1CCNCC1

>  <Standard Type>  (388) 
IC50

>  <Standard Relation>  (388) 
'='

>  <Standard Units>  (388) 
nM

>  <Standard Value>  (388) 
5.0

>  <Assay ChEMBL ID>  (388) 
CHEMBL4716834

>  <Assay Description>  (388) 
Inhibition of ALK (unknown origin)

>  <BAO Format ID>  (388) 
BAO_0000357

>  <BAO Label>  (388) 
single protein format

>  <Assay Organism>  (388) 
Homo sapiens

>  <Target ChEMBL ID>  (388) 
CHEMBL4247

>  <Target Name>  (388) 
ALK tyrosine kinase receptor

>  <Target Organism>  (388) 
Homo sapiens

>  <Target Type>  (388) 
SINGLE PROTEIN

>  <Document ChEMBL ID>  (388) 
CHEMBL4715698

>  <Source Description>  (388) 
Scientific Literature

>  <Document Journal>  (388) 
Bioorg Med Chem Lett

>  <Document Year>  (388) 
2016.0

>  <Active>  (388) 
1.0

>  <bits>  (388) 
<rdkit.DataStructs.cDataStructs.ExplicitBitVect object at 0x000002422F232650>

>  <Group>  (388) 
G2

$$$$

     RDKit          2D

 45 49  0  0  0  0  0  0  0  0999 V2000
    0.5271    8.0861    0.0000 C   0  0  0  0  0  0  0  0  0  0  0  0
   -0.8995    7.6226    0.0000 C   0  0  0  0  0  0  0  0  0  0  0  0
   -1.2114    6.1554    0.0000 C   0  0  0  0  0  0  0  0  0  0  0  0
   -2.6380    5.6918    0.0000 C   0  0  0  0  0  0  0  0  0  0  0  0
   -2.9499    4.2246    0.0000 N   0  0  0  0  0  0  0  0  0  0  0  0
   -1.8351    3.2209    0.0000 C   0  0  0  0  0  0  0  0  0  0  0  0
   -0.4086    3.6844    0.0000 N   0  0  0  0  0  0  0  0  0  0  0  0
    0.7062    2.6807    0.0000 C   0  0  0  0  0  0  0  0  0  0  0  0
    2.1328    3.1443    0.0000 N   0  0  0  0  0  0  0  0  0  0  0  0
    2.4446    4.6115    0.0000 C   0  0  0  0  0  0  0  0  0  0  0  0
    1.3299    5.6152    0.0000 C   0  0  0  0  0  0  0  0  0  0  0  0
    1.6418    7.0824    0.0000 C   0  0  0  0  0  0  0  0  0  0  0  0
    3.0684    7.5459    0.0000 C   0  0  0  0  0  0  0  0  0  0  0  0
    4.1831    6.5422    0.0000 C   0  0  0  0  0  0  0  0  0  0  0  0
    3.8712    5.0750    0.0000 C   0  0  0  0  0  0  0  0  0  0  0  0
    4.9859    4.0713    0.0000 S   0  0  0  0  0  0  0  0  0  0  0  0
    3.9822    2.9566    0.0000 O   0  0  0  0  0  0  0  0  0  0  0  0
    5.9896    5.1860    0.0000 O   0  0  0  0  0  0  0  0  0  0  0  0
    6.1006    3.0676    0.0000 C   0  0  0  0  0  0  0  0  0  0  0  0
    5.7888    1.6004    0.0000 C   0  0  0  0  0  0  0  0  0  0  0  0
    7.5272    3.5312    0.0000 C   0  0  0  0  0  0  0  0  0  0  0  0
    0.3943    1.2135    0.0000 C   0  0  0  0  0  0  0  0  0  0  0  0
    1.2760    0.0000    0.0000 C   0  0  0  0  0  0  0  0  0  0  0  0
    2.7760    0.0000    0.0000 C   0  0  0  0  0  0  0  0  0  0  0  0
    0.3943   -1.2135    0.0000 C   0  0  0  0  0  0  0  0  0  0  0  0
   -1.0323   -0.7500    0.0000 N   0  0  0  0  0  0  0  0  0  0  0  0
   -1.0323    0.7500    0.0000 C   0  0  0  0  0  0  0  0  0  0  0  0
   -2.1470    1.7537    0.0000 N   0  0  0  0  0  0  0  0  0  0  0  0
   -3.7527    6.6955    0.0000 C   0  0  0  0  0  0  0  0  0  0  0  0
   -5.1793    6.2320    0.0000 O   0  0  0  0  0  0  0  0  0  0  0  0
   -6.2940    7.2357    0.0000 C   0  0  0  0  0  0  0  0  0  0  0  0
   -7.7206    6.7722    0.0000 C   0  0  0  0  0  0  0  0  0  0  0  0
   -5.9821    8.7029    0.0000 C   0  0  0  0  0  0  0  0  0  0  0  0
   -3.4408    8.1628    0.0000 C   0  0  0  0  0  0  0  0  0  0  0  0
   -2.0143    8.6263    0.0000 C   0  0  0  0  0  0  0  0  0  0  0  0
   -1.7024   10.0935    0.0000 C   0  0  0  0  0  0  0  0  0  0  0  0
   -0.2758   10.5570    0.0000 C   0  0  0  0  0  0  0  0  0  0  0  0
    0.0361   12.0242    0.0000 C   0  0  0  0  0  0  0  0  0  0  0  0
   -1.0786   13.0279    0.0000 N   0  0  0  0  0  0  0  0  0  0  0  0
   -0.7668   14.4952    0.0000 C   0  0  0  0  0  0  0  0  0  0  0  0
    0.6598   14.9587    0.0000 C   0  0  0  0  0  0  0  0  0  0  0  0
    0.9717   16.4259    0.0000 N   0  0  0  0  0  0  0  0  0  0  0  0
    1.7745   13.9550    0.0000 O   0  0  0  0  0  0  0  0  0  0  0  0
   -2.5052   12.5644    0.0000 C   0  0  0  0  0  0  0  0  0  0  0  0
   -2.8171   11.0972    0.0000 C   0  0  0  0  0  0  0  0  0  0  0  0
  1  2  1  0
  2  3  2  0
  3  4  1  0
  4  5  1  0
  5  6  1  0
  6  7  2  0
  7  8  1  0
  8  9  1  0
  9 10  1  0
 10 11  2  0
 11 12  1  0
 12 13  2  0
 13 14  1  0
 14 15  2  0
 15 16  1  0
 16 17  2  0
 16 18  2  0
 16 19  1  0
 19 20  1  0
 19 21  1  0
  8 22  2  0
 22 23  1  0
 23 24  1  0
 23 25  2  0
 25 26  1  0
 26 27  1  0
 27 28  2  0
  4 29  2  0
 29 30  1  0
 30 31  1  0
 31 32  1  0
 31 33  1  0
 29 34  1  0
 34 35  2  0
 35 36  1  0
 36 37  1  0
 37 38  1  0
 38 39  1  0
 39 40  1  0
 40 41  1  0
 41 42  1  0
 41 43  2  0
 39 44  1  0
 44 45  1  0
 35  2  1  0
 45 36  1  0
 28  6  1  0
 15 10  1  0
 27 22  1  0
M  END
>  <Compound_ID>  (389) 
CHEMBL3651880

>  <Molecule Name>  (389) 
nan

>  <Molecular Weight>  (389) 
633.82

>  <AlogP>  (389) 
5.70

>  <Smiles>  (389) 
Cc1cc(Nc2nc(Nc3ccccc3S(=O)(=O)C(C)C)c3c(C)c[nH]c3n2)c(OC(C)C)cc1C1CCN(CC(N)=O)CC1

>  <Standard Type>  (389) 
IC50

>  <Standard Relation>  (389) 
'='

>  <Standard Units>  (389) 
nM

>  <Standard Value>  (389) 
7.0

>  <Assay ChEMBL ID>  (389) 
CHEMBL3705165

>  <Assay Description>  (389) 
Enzyme Assay: The inhibition of ALK tyrosine kinase activity may be demonstrated using known methods, for example using the recombinant kinase domain of the ALK in analogy to the VEGF-R kinase assay described in J. Wood et al. Cancer Res. 60, 2178-2189 (2000).

>  <BAO Format ID>  (389) 
BAO_0000357

>  <BAO Label>  (389) 
single protein format

>  <Assay Organism>  (389) 
Homo sapiens

>  <Target ChEMBL ID>  (389) 
CHEMBL4247

>  <Target Name>  (389) 
ALK tyrosine kinase receptor

>  <Target Organism>  (389) 
Homo sapiens

>  <Target Type>  (389) 
SINGLE PROTEIN

>  <Document ChEMBL ID>  (389) 
CHEMBL3638924

>  <Source Description>  (389) 
BindingDB Database

>  <Document Journal>  (389) 
nan

>  <Document Year>  (389) 
2013.0

>  <Active>  (389) 
1.0

>  <bits>  (389) 
<rdkit.DataStructs.cDataStructs.ExplicitBitVect object at 0x000002422F232340>

>  <Group>  (389) 
G2

$$$$

     RDKit          2D

 40 44  0  0  0  0  0  0  0  0999 V2000
   -6.2940    7.2357    0.0000 C   0  0  0  0  0  0  0  0  0  0  0  0
   -5.1793    6.2320    0.0000 O   0  0  0  0  0  0  0  0  0  0  0  0
   -3.7527    6.6955    0.0000 C   0  0  0  0  0  0  0  0  0  0  0  0
   -3.4408    8.1628    0.0000 C   0  0  0  0  0  0  0  0  0  0  0  0
   -2.0143    8.6263    0.0000 C   0  0  0  0  0  0  0  0  0  0  0  0
   -1.7024   10.0935    0.0000 C   0  0  0  0  0  0  0  0  0  0  0  0
   -0.2758   10.5570    0.0000 C   0  0  0  0  0  0  0  0  0  0  0  0
    0.0361   12.0242    0.0000 C   0  0  0  0  0  0  0  0  0  0  0  0
   -1.0786   13.0279    0.0000 N   0  0  0  0  0  0  0  0  0  0  0  0
   -0.7668   14.4952    0.0000 C   0  0  0  0  0  0  0  0  0  0  0  0
   -2.5052   12.5644    0.0000 C   0  0  0  0  0  0  0  0  0  0  0  0
   -2.8171   11.0972    0.0000 C   0  0  0  0  0  0  0  0  0  0  0  0
   -0.8995    7.6226    0.0000 C   0  0  0  0  0  0  0  0  0  0  0  0
    0.5271    8.0861    0.0000 C   0  0  0  0  0  0  0  0  0  0  0  0
   -1.2114    6.1554    0.0000 C   0  0  0  0  0  0  0  0  0  0  0  0
   -2.6380    5.6918    0.0000 C   0  0  0  0  0  0  0  0  0  0  0  0
   -2.9499    4.2246    0.0000 N   0  0  0  0  0  0  0  0  0  0  0  0
   -1.8351    3.2209    0.0000 C   0  0  0  0  0  0  0  0  0  0  0  0
   -0.4086    3.6844    0.0000 N   0  0  0  0  0  0  0  0  0  0  0  0
    0.7062    2.6807    0.0000 C   0  0  0  0  0  0  0  0  0  0  0  0
    2.1328    3.1443    0.0000 N   0  0  0  0  0  0  0  0  0  0  0  0
    2.4446    4.6115    0.0000 C   0  0  0  0  0  0  0  0  0  0  0  0
    1.3299    5.6152    0.0000 C   0  0  0  0  0  0  0  0  0  0  0  0
    1.6418    7.0824    0.0000 C   0  0  0  0  0  0  0  0  0  0  0  0
    3.0684    7.5459    0.0000 C   0  0  0  0  0  0  0  0  0  0  0  0
    4.1831    6.5422    0.0000 C   0  0  0  0  0  0  0  0  0  0  0  0
    3.8712    5.0750    0.0000 C   0  0  0  0  0  0  0  0  0  0  0  0
    4.9859    4.0713    0.0000 S   0  0  0  0  0  0  0  0  0  0  0  0
    5.9896    5.1860    0.0000 O   0  0  0  0  0  0  0  0  0  0  0  0
    3.9822    2.9566    0.0000 O   0  0  0  0  0  0  0  0  0  0  0  0
    6.1006    3.0676    0.0000 C   0  0  0  0  0  0  0  0  0  0  0  0
    7.5272    3.5312    0.0000 C   0  0  0  0  0  0  0  0  0  0  0  0
    5.7888    1.6004    0.0000 C   0  0  0  0  0  0  0  0  0  0  0  0
    0.3943    1.2135    0.0000 C   0  0  0  0  0  0  0  0  0  0  0  0
    1.2760    0.0000    0.0000 C   0  0  0  0  0  0  0  0  0  0  0  0
    2.7760    0.0000    0.0000 C   0  0  0  0  0  0  0  0  0  0  0  0
    0.3943   -1.2135    0.0000 N   0  0  0  0  0  0  0  0  0  0  0  0
   -1.0323   -0.7500    0.0000 N   0  0  0  0  0  0  0  0  0  0  0  0
   -1.0323    0.7500    0.0000 C   0  0  0  0  0  0  0  0  0  0  0  0
   -2.1470    1.7537    0.0000 N   0  0  0  0  0  0  0  0  0  0  0  0
  1  2  1  0
  2  3  1  0
  3  4  2  0
  4  5  1  0
  5  6  1  0
  6  7  1  0
  7  8  1  0
  8  9  1  0
  9 10  1  0
  9 11  1  0
 11 12  1  0
  5 13  2  0
 13 14  1  0
 13 15  1  0
 15 16  2  0
 16 17  1  0
 17 18  1  0
 18 19  1  0
 19 20  2  0
 20 21  1  0
 21 22  1  0
 22 23  2  0
 23 24  1  0
 24 25  2  0
 25 26  1  0
 26 27  2  0
 27 28  1  0
 28 29  2  0
 28 30  2  0
 28 31  1  0
 31 32  1  0
 31 33  1  0
 20 34  1  0
 34 35  2  0
 35 36  1  0
 35 37  1  0
 37 38  1  0
 38 39  2  0
 39 40  1  0
 16  3  1  0
 40 18  2  0
 12  6  1  0
 27 22  1  0
 39 34  1  0
M  END
>  <Compound_ID>  (390) 
CHEMBL3651862

>  <Molecule Name>  (390) 
nan

>  <Molecular Weight>  (390) 
563.73

>  <AlogP>  (390) 
5.46

>  <Smiles>  (390) 
COc1cc(C2CCN(C)CC2)c(C)cc1Nc1nc(Nc2ccccc2S(=O)(=O)C(C)C)c2c(C)[nH]nc2n1

>  <Standard Type>  (390) 
IC50

>  <Standard Relation>  (390) 
'='

>  <Standard Units>  (390) 
nM

>  <Standard Value>  (390) 
2.0

>  <Assay ChEMBL ID>  (390) 
CHEMBL3705165

>  <Assay Description>  (390) 
Enzyme Assay: The inhibition of ALK tyrosine kinase activity may be demonstrated using known methods, for example using the recombinant kinase domain of the ALK in analogy to the VEGF-R kinase assay described in J. Wood et al. Cancer Res. 60, 2178-2189 (2000).

>  <BAO Format ID>  (390) 
BAO_0000357

>  <BAO Label>  (390) 
single protein format

>  <Assay Organism>  (390) 
Homo sapiens

>  <Target ChEMBL ID>  (390) 
CHEMBL4247

>  <Target Name>  (390) 
ALK tyrosine kinase receptor

>  <Target Organism>  (390) 
Homo sapiens

>  <Target Type>  (390) 
SINGLE PROTEIN

>  <Document ChEMBL ID>  (390) 
CHEMBL3638924

>  <Source Description>  (390) 
BindingDB Database

>  <Document Journal>  (390) 
nan

>  <Document Year>  (390) 
2013.0

>  <Active>  (390) 
1.0

>  <bits>  (390) 
<rdkit.DataStructs.cDataStructs.ExplicitBitVect object at 0x000002422F2320A0>

>  <Group>  (390) 
G2

$$$$

     RDKit          2D

 37 43  0  0  0  0  0  0  0  0999 V2000
    1.3396   -4.9944    0.0000 C   0  0  0  0  0  0  0  0  0  0  0  0
   -0.1568   -5.0991    0.0000 C   0  0  0  0  0  0  0  0  0  0  0  0
    0.2061   -6.5545    0.0000 C   0  0  0  0  0  0  0  0  0  0  0  0
   -1.5271   -5.7092    0.0000 C   0  0  0  0  0  0  0  0  0  0  0  0
   -1.6839   -7.2010    0.0000 C   0  0  0  0  0  0  0  0  0  0  0  0
   -3.0542   -7.8111    0.0000 C   0  0  0  0  0  0  0  0  0  0  0  0
   -3.2110   -9.3029    0.0000 N   0  0  0  0  0  0  0  0  0  0  0  0
   -4.5813   -9.9130    0.0000 C   0  0  0  0  0  0  0  0  0  0  0  0
   -4.7381  -11.4047    0.0000 C   0  0  0  0  0  0  0  0  0  0  0  0
   -3.5246  -12.2864    0.0000 N   0  0  0  0  0  0  0  0  0  0  0  0
   -3.6814  -13.7782    0.0000 C   0  0  0  0  0  0  0  0  0  0  0  0
   -3.0713  -15.1485    0.0000 C   0  0  0  0  0  0  0  0  0  0  0  0
   -4.5631  -14.9917    0.0000 C   0  0  0  0  0  0  0  0  0  0  0  0
   -2.1543  -11.6763    0.0000 C   0  0  0  0  0  0  0  0  0  0  0  0
   -1.9975  -10.1845    0.0000 C   0  0  0  0  0  0  0  0  0  0  0  0
   -4.2677   -6.9294    0.0000 C   0  0  0  0  0  0  0  0  0  0  0  0
   -5.6381   -7.5395    0.0000 C   0  0  0  0  0  0  0  0  0  0  0  0
   -6.8516   -6.6578    0.0000 C   0  0  0  0  0  0  0  0  0  0  0  0
   -8.2219   -7.2679    0.0000 C   0  0  0  0  0  0  0  0  0  0  0  0
   -8.3787   -8.7597    0.0000 C   0  0  0  0  0  0  0  0  0  0  0  0
   -7.1652   -9.6414    0.0000 C   0  0  0  0  0  0  0  0  0  0  0  0
   -5.7949   -9.0313    0.0000 C   0  0  0  0  0  0  0  0  0  0  0  0
   -4.1110   -5.4376    0.0000 C   0  0  0  0  0  0  0  0  0  0  0  0
   -2.7406   -4.8275    0.0000 C   0  0  0  0  0  0  0  0  0  0  0  0
   -2.5838   -3.3357    0.0000 C   0  0  0  0  0  0  0  0  0  0  0  0
   -3.7974   -2.4540    0.0000 O   0  0  0  0  0  0  0  0  0  0  0  0
   -1.2135   -2.7256    0.0000 C   0  0  0  0  0  0  0  0  0  0  0  0
   -0.0000   -3.6073    0.0000 C   0  0  0  0  0  0  0  0  0  0  0  0
    1.2135   -2.7256    0.0000 N   0  0  0  0  0  0  0  0  0  0  0  0
    0.7500   -1.2990    0.0000 C   0  0  0  0  0  0  0  0  0  0  0  0
    1.5000    0.0000    0.0000 C   0  0  0  0  0  0  0  0  0  0  0  0
    0.7500    1.2990    0.0000 C   0  0  0  0  0  0  0  0  0  0  0  0
    1.5000    2.5981    0.0000 C   0  0  0  0  0  0  0  0  0  0  0  0
    2.2500    3.8971    0.0000 N   0  0  0  0  0  0  0  0  0  0  0  0
   -0.7500    1.2990    0.0000 C   0  0  0  0  0  0  0  0  0  0  0  0
   -1.5000    0.0000    0.0000 C   0  0  0  0  0  0  0  0  0  0  0  0
   -0.7500   -1.2990    0.0000 C   0  0  0  0  0  0  0  0  0  0  0  0
  1  2  1  0
  2  3  1  0
  2  4  1  0
  4  5  2  0
  5  6  1  0
  6  7  1  0
  7  8  1  0
  8  9  1  0
  9 10  1  0
 10 11  1  0
 11 12  1  0
 12 13  1  0
 10 14  1  0
 14 15  1  0
  6 16  2  0
 16 17  1  0
 17 18  2  0
 18 19  1  0
 19 20  2  0
 20 21  1  0
 21 22  2  0
 16 23  1  0
 23 24  2  0
 24 25  1  0
 25 26  2  0
 25 27  1  0
 27 28  2  0
 28 29  1  0
 29 30  1  0
 30 31  2  0
 31 32  1  0
 32 33  1  0
 33 34  3  0
 32 35  2  0
 35 36  1  0
 36 37  2  0
 28  2  1  0
 37 30  1  0
 24  4  1  0
 37 27  1  0
 15  7  1  0
 22 17  1  0
 13 11  1  0
M  END
>  <Compound_ID>  (391) 
CHEMBL3934077

>  <Molecule Name>  (391) 
nan

>  <Molecular Weight>  (391) 
486.62

>  <AlogP>  (391) 
5.86

>  <Smiles>  (391) 
CC1(C)c2cc(N3CCN(C4CC4)CC3)c(-c3ccccc3)cc2C(=O)c2c1[nH]c1cc(C#N)ccc21

>  <Standard Type>  (391) 
IC50

>  <Standard Relation>  (391) 
'='

>  <Standard Units>  (391) 
nM

>  <Standard Value>  (391) 
14.82

>  <Assay ChEMBL ID>  (391) 
CHEMBL3887074

>  <Assay Description>  (391) 
Inhibition Assay: ALK-inhibiting activity was measured by following an activity of inhibiting phosphorylation by biotinylated peptide (EGPWLEEEEEAYGWMDF). For the detection of phosphorylation of the biotinylated peptide, time-resolved fluorescence measurement was performed using an anti-phosphorylated tyrosine antibody labeled with europium cryptate and streptavidin conjugated to XL665, i.e., an allophycocyanin derivative.

>  <BAO Format ID>  (391) 
BAO_0000357

>  <BAO Label>  (391) 
single protein format

>  <Assay Organism>  (391) 
Homo sapiens

>  <Target ChEMBL ID>  (391) 
CHEMBL4247

>  <Target Name>  (391) 
ALK tyrosine kinase receptor

>  <Target Organism>  (391) 
Homo sapiens

>  <Target Type>  (391) 
SINGLE PROTEIN

>  <Document ChEMBL ID>  (391) 
CHEMBL3886150

>  <Source Description>  (391) 
BindingDB Database

>  <Document Journal>  (391) 
nan

>  <Document Year>  (391) 
2015.0

>  <Active>  (391) 
1.0

>  <bits>  (391) 
<rdkit.DataStructs.cDataStructs.ExplicitBitVect object at 0x000002422F231C40>

>  <Group>  (391) 
G2

$$$$

     RDKit          2D

 32 36  0  0  0  0  0  0  0  0999 V2000
   -9.6403    1.3658    0.0000 C   0  0  0  0  0  0  0  0  0  0  0  0
   -8.5256    0.3621    0.0000 O   0  0  0  0  0  0  0  0  0  0  0  0
   -7.0990    0.8256    0.0000 C   0  0  0  0  0  0  0  0  0  0  0  0
   -6.7871    2.2929    0.0000 C   0  0  0  0  0  0  0  0  0  0  0  0
   -5.3605    2.7564    0.0000 C   0  0  0  0  0  0  0  0  0  0  0  0
   -5.0487    4.2236    0.0000 N   0  0  0  0  0  0  0  0  0  0  0  0
   -3.6221    4.6871    0.0000 C   0  0  0  0  0  0  0  0  0  0  0  0
   -3.3102    6.1544    0.0000 C   0  0  0  0  0  0  0  0  0  0  0  0
   -4.4249    7.1580    0.0000 C   0  0  0  0  0  0  0  0  0  0  0  0
   -4.1131    8.6253    0.0000 N   0  0  0  0  0  0  0  0  0  0  0  0
   -5.8515    6.6945    0.0000 C   0  0  0  0  0  0  0  0  0  0  0  0
   -6.1634    5.2273    0.0000 C   0  0  0  0  0  0  0  0  0  0  0  0
   -4.2458    1.7527    0.0000 C   0  0  0  0  0  0  0  0  0  0  0  0
   -4.5577    0.2855    0.0000 C   0  0  0  0  0  0  0  0  0  0  0  0
   -5.9843   -0.1781    0.0000 C   0  0  0  0  0  0  0  0  0  0  0  0
   -6.2961   -1.6453    0.0000 N   0  0  0  0  0  0  0  0  0  0  0  0
   -5.1814   -2.6490    0.0000 C   0  0  0  0  0  0  0  0  0  0  0  0
   -5.4933   -4.1162    0.0000 N   0  0  0  0  0  0  0  0  0  0  0  0
   -4.3786   -5.1199    0.0000 C   0  0  0  0  0  0  0  0  0  0  0  0
   -2.9520   -4.6564    0.0000 C   0  0  0  0  0  0  0  0  0  0  0  0
   -1.8373   -5.6601    0.0000 Cl  0  0  0  0  0  0  0  0  0  0  0  0
   -2.6401   -3.1891    0.0000 C   0  0  0  0  0  0  0  0  0  0  0  0
   -1.2135   -2.7256    0.0000 C   0  0  0  0  0  0  0  0  0  0  0  0
   -0.0000   -3.6073    0.0000 C   0  0  0  0  0  0  0  0  0  0  0  0
    1.2135   -2.7256    0.0000 N   0  0  0  0  0  0  0  0  0  0  0  0
    0.7500   -1.2990    0.0000 C   0  0  0  0  0  0  0  0  0  0  0  0
    1.5000    0.0000    0.0000 C   0  0  0  0  0  0  0  0  0  0  0  0
    0.7500    1.2990    0.0000 C   0  0  0  0  0  0  0  0  0  0  0  0
   -0.7500    1.2990    0.0000 C   0  0  0  0  0  0  0  0  0  0  0  0
   -1.5000    0.0000    0.0000 C   0  0  0  0  0  0  0  0  0  0  0  0
   -0.7500   -1.2990    0.0000 C   0  0  0  0  0  0  0  0  0  0  0  0
   -3.7548   -2.1855    0.0000 N   0  0  0  0  0  0  0  0  0  0  0  0
  1  2  1  0
  2  3  1  0
  3  4  2  0
  4  5  1  0
  5  6  1  0
  6  7  1  0
  7  8  1  0
  8  9  1  0
  9 10  1  0
  9 11  1  0
 11 12  1  0
  5 13  2  0
 13 14  1  0
 14 15  2  0
 15 16  1  0
 16 17  1  0
 17 18  2  0
 18 19  1  0
 19 20  2  0
 20 21  1  0
 20 22  1  0
 22 23  1  0
 23 24  2  0
 24 25  1  0
 25 26  1  0
 26 27  2  0
 27 28  1  0
 28 29  2  0
 29 30  1  0
 30 31  2  0
 22 32  2  0
 15  3  1  0
 32 17  1  0
 12  6  1  0
 31 23  1  0
 31 26  1  0
M  END
>  <Compound_ID>  (392) 
CHEMBL4203266

>  <Molecule Name>  (392) 
nan

>  <Molecular Weight>  (392) 
448.96

>  <AlogP>  (392) 
4.96

>  <Smiles>  (392) 
COc1cc(N2CCC(N)CC2)ccc1Nc1ncc(Cl)c(-c2c[nH]c3ccccc23)n1

>  <Standard Type>  (392) 
Ki

>  <Standard Relation>  (392) 
'='

>  <Standard Units>  (392) 
nM

>  <Standard Value>  (392) 
0.75

>  <Assay ChEMBL ID>  (392) 
CHEMBL4378233

>  <Assay Description>  (392) 
Inhibition of ALK (unknown origin)

>  <BAO Format ID>  (392) 
BAO_0000357

>  <BAO Label>  (392) 
single protein format

>  <Assay Organism>  (392) 
Homo sapiens

>  <Target ChEMBL ID>  (392) 
CHEMBL4247

>  <Target Name>  (392) 
ALK tyrosine kinase receptor

>  <Target Organism>  (392) 
Homo sapiens

>  <Target Type>  (392) 
SINGLE PROTEIN

>  <Document ChEMBL ID>  (392) 
CHEMBL4376817

>  <Source Description>  (392) 
Scientific Literature

>  <Document Journal>  (392) 
J Med Chem

>  <Document Year>  (392) 
2019.0

>  <Active>  (392) 
1.0

>  <bits>  (392) 
<rdkit.DataStructs.cDataStructs.ExplicitBitVect object at 0x000002422F231620>

>  <Group>  (392) 
G2

$$$$

     RDKit          2D

 37 41  0  0  0  0  0  0  0  0999 V2000
    4.7581   -7.3178    0.0000 C   0  0  0  0  0  0  0  0  0  0  0  0
    3.2909   -7.0059    0.0000 N   0  0  0  0  0  0  0  0  0  0  0  0
    2.8273   -5.5793    0.0000 C   0  0  0  0  0  0  0  0  0  0  0  0
    3.8310   -4.4646    0.0000 O   0  0  0  0  0  0  0  0  0  0  0  0
    1.3601   -5.2674    0.0000 C   0  0  0  0  0  0  0  0  0  0  0  0
    0.2454   -6.2711    0.0000 N   0  0  0  0  0  0  0  0  0  0  0  0
   -1.0537   -5.5211    0.0000 N   0  0  0  0  0  0  0  0  0  0  0  0
   -2.4240   -6.1312    0.0000 C   0  0  0  0  0  0  0  0  0  0  0  0
   -0.7418   -4.0539    0.0000 C   0  0  0  0  0  0  0  0  0  0  0  0
    0.7500   -3.8971    0.0000 C   0  0  0  0  0  0  0  0  0  0  0  0
    1.5000   -2.5981    0.0000 N   0  0  0  0  0  0  0  0  0  0  0  0
    0.7500   -1.2990    0.0000 C   0  0  0  0  0  0  0  0  0  0  0  0
    1.5000    0.0000    0.0000 N   0  0  0  0  0  0  0  0  0  0  0  0
    0.7500    1.2990    0.0000 C   0  0  0  0  0  0  0  0  0  0  0  0
    1.5000    2.5981    0.0000 N   0  0  0  0  0  0  0  0  0  0  0  0
    3.0000    2.5981    0.0000 C   0  0  0  0  0  0  0  0  0  0  0  0
    3.7500    1.2990    0.0000 C   0  0  0  0  0  0  0  0  0  0  0  0
    5.2500    1.2990    0.0000 C   0  0  0  0  0  0  0  0  0  0  0  0
    6.0000   -0.0000    0.0000 C   0  0  0  0  0  0  0  0  0  0  0  0
    6.0000    2.5981    0.0000 C   0  0  0  0  0  0  0  0  0  0  0  0
    7.5000    2.5981    0.0000 C   0  0  0  0  0  0  0  0  0  0  0  0
    8.2500    1.2990    0.0000 C   0  0  0  0  0  0  0  0  0  0  0  0
    9.7500    1.2990    0.0000 C   0  0  0  0  0  0  0  0  0  0  0  0
   10.5000    2.5981    0.0000 N   0  0  0  0  0  0  0  0  0  0  0  0
   12.0000    2.5981    0.0000 C   0  0  0  0  0  0  0  0  0  0  0  0
    9.7500    3.8971    0.0000 C   0  0  0  0  0  0  0  0  0  0  0  0
    8.2500    3.8971    0.0000 C   0  0  0  0  0  0  0  0  0  0  0  0
    5.2500    3.8971    0.0000 C   0  0  0  0  0  0  0  0  0  0  0  0
    3.7500    3.8971    0.0000 C   0  0  0  0  0  0  0  0  0  0  0  0
    3.0000    5.1962    0.0000 O   0  0  0  0  0  0  0  0  0  0  0  0
    3.7500    6.4952    0.0000 C   0  0  0  0  0  0  0  0  0  0  0  0
    3.7500    7.9952    0.0000 C   0  0  0  0  0  0  0  0  0  0  0  0
    5.0490    7.2452    0.0000 C   0  0  0  0  0  0  0  0  0  0  0  0
   -0.7500    1.2990    0.0000 N   0  0  0  0  0  0  0  0  0  0  0  0
   -1.5000    0.0000    0.0000 C   0  0  0  0  0  0  0  0  0  0  0  0
   -0.7500   -1.2990    0.0000 C   0  0  0  0  0  0  0  0  0  0  0  0
   -1.5000   -2.5981    0.0000 Cl  0  0  0  0  0  0  0  0  0  0  0  0
  1  2  1  0
  2  3  1  0
  3  4  2  0
  3  5  1  0
  5  6  2  0
  6  7  1  0
  7  8  1  0
  7  9  1  0
  9 10  2  0
 10 11  1  0
 11 12  1  0
 12 13  2  0
 13 14  1  0
 14 15  1  0
 15 16  1  0
 16 17  2  0
 17 18  1  0
 18 19  1  0
 18 20  2  0
 20 21  1  0
 21 22  1  0
 22 23  1  0
 23 24  1  0
 24 25  1  0
 24 26  1  0
 26 27  1  0
 20 28  1  0
 28 29  2  0
 29 30  1  0
 30 31  1  0
 31 32  1  0
 32 33  1  0
 14 34  2  0
 34 35  1  0
 35 36  2  0
 36 37  1  0
 10  5  1  0
 36 12  1  0
 29 16  1  0
 33 31  1  0
 27 21  1  0
M  END
>  <Compound_ID>  (393) 
CHEMBL3786830

>  <Molecule Name>  (393) 
nan

>  <Molecular Weight>  (393) 
525.06

>  <AlogP>  (393) 
4.37

>  <Smiles>  (393) 
CNC(=O)c1nn(C)cc1Nc1nc(Nc2cc(C)c(C3CCN(C)CC3)cc2OC2CC2)ncc1Cl

>  <Standard Type>  (393) 
IC50

>  <Standard Relation>  (393) 
'='

>  <Standard Units>  (393) 
nM

>  <Standard Value>  (393) 
12.0

>  <Assay ChEMBL ID>  (393) 
CHEMBL3791910

>  <Assay Description>  (393) 
Inhibition of recombinant human wild type ALK using tyrosine kinase substrate-biotin after 30 mins by HTRF assay

>  <BAO Format ID>  (393) 
BAO_0000357

>  <BAO Label>  (393) 
single protein format

>  <Assay Organism>  (393) 
Homo sapiens

>  <Target ChEMBL ID>  (393) 
CHEMBL4247

>  <Target Name>  (393) 
ALK tyrosine kinase receptor

>  <Target Organism>  (393) 
Homo sapiens

>  <Target Type>  (393) 
SINGLE PROTEIN

>  <Document ChEMBL ID>  (393) 
CHEMBL3785058

>  <Source Description>  (393) 
Scientific Literature

>  <Document Journal>  (393) 
Bioorg Med Chem Lett

>  <Document Year>  (393) 
2016.0

>  <Active>  (393) 
1.0

>  <bits>  (393) 
<rdkit.DataStructs.cDataStructs.ExplicitBitVect object at 0x000002422F2304A0>

>  <Group>  (393) 
G2

$$$$

     RDKit          2D

 33 38  0  0  0  0  0  0  0  0999 V2000
    2.6491   -3.5623    0.0000 C   0  0  0  0  0  0  0  0  0  0  0  0
    1.5000   -2.5981    0.0000 C   0  0  0  0  0  0  0  0  0  0  0  0
    2.6491   -1.6339    0.0000 C   0  0  0  0  0  0  0  0  0  0  0  0
    0.7500   -1.2990    0.0000 C   0  0  0  0  0  0  0  0  0  0  0  0
    1.5000    0.0000    0.0000 C   0  0  0  0  0  0  0  0  0  0  0  0
    0.7500    1.2990    0.0000 C   0  0  0  0  0  0  0  0  0  0  0  0
    1.5000    2.5981    0.0000 C   0  0  0  0  0  0  0  0  0  0  0  0
    0.8899    3.9684    0.0000 C   0  0  0  0  0  0  0  0  0  0  0  0
    2.0046    4.9721    0.0000 N   0  0  0  0  0  0  0  0  0  0  0  0
    3.3037    4.2221    0.0000 N   0  0  0  0  0  0  0  0  0  0  0  0
    4.6740    4.8322    0.0000 C   0  0  0  0  0  0  0  0  0  0  0  0
    5.8875    3.9505    0.0000 C   0  0  0  0  0  0  0  0  0  0  0  0
    7.2578    4.5606    0.0000 C   0  0  0  0  0  0  0  0  0  0  0  0
    7.4146    6.0524    0.0000 N   0  0  0  0  0  0  0  0  0  0  0  0
    6.2011    6.9341    0.0000 C   0  0  0  0  0  0  0  0  0  0  0  0
    4.8308    6.3240    0.0000 C   0  0  0  0  0  0  0  0  0  0  0  0
    2.9918    2.7549    0.0000 C   0  0  0  0  0  0  0  0  0  0  0  0
   -0.7500    1.2990    0.0000 C   0  0  0  0  0  0  0  0  0  0  0  0
   -1.5000    0.0000    0.0000 C   0  0  0  0  0  0  0  0  0  0  0  0
   -0.7500   -1.2990    0.0000 C   0  0  0  0  0  0  0  0  0  0  0  0
   -1.5000   -2.5981    0.0000 C   0  0  0  0  0  0  0  0  0  0  0  0
   -3.0000   -2.5981    0.0000 O   0  0  0  0  0  0  0  0  0  0  0  0
   -0.7500   -3.8971    0.0000 C   0  0  0  0  0  0  0  0  0  0  0  0
    0.7500   -3.8971    0.0000 C   0  0  0  0  0  0  0  0  0  0  0  0
    1.2135   -5.3237    0.0000 N   0  0  0  0  0  0  0  0  0  0  0  0
    0.0000   -6.2054    0.0000 C   0  0  0  0  0  0  0  0  0  0  0  0
   -0.1568   -7.6972    0.0000 C   0  0  0  0  0  0  0  0  0  0  0  0
   -1.5271   -8.3073    0.0000 C   0  0  0  0  0  0  0  0  0  0  0  0
   -1.6839   -9.7990    0.0000 C   0  0  0  0  0  0  0  0  0  0  0  0
   -1.8407  -11.2908    0.0000 N   0  0  0  0  0  0  0  0  0  0  0  0
   -2.7406   -7.4256    0.0000 C   0  0  0  0  0  0  0  0  0  0  0  0
   -2.5838   -5.9338    0.0000 C   0  0  0  0  0  0  0  0  0  0  0  0
   -1.2135   -5.3237    0.0000 C   0  0  0  0  0  0  0  0  0  0  0  0
  1  2  1  0
  2  3  1  0
  2  4  1  0
  4  5  2  0
  5  6  1  0
  6  7  1  0
  7  8  1  0
  8  9  2  0
  9 10  1  0
 10 11  1  0
 11 12  1  0
 12 13  1  0
 13 14  1  0
 14 15  1  0
 15 16  1  0
 10 17  1  0
  6 18  2  0
 18 19  1  0
 19 20  2  0
 20 21  1  0
 21 22  2  0
 21 23  1  0
 23 24  2  0
 24 25  1  0
 25 26  1  0
 26 27  2  0
 27 28  1  0
 28 29  1  0
 29 30  3  0
 28 31  2  0
 31 32  1  0
 32 33  2  0
 24  2  1  0
 33 26  1  0
 20  4  1  0
 33 23  1  0
 17  7  2  0
 16 11  1  0
M  END
>  <Compound_ID>  (394) 
CHEMBL3735349

>  <Molecule Name>  (394) 
nan

>  <Molecular Weight>  (394) 
435.53

>  <AlogP>  (394) 
4.70

>  <Smiles>  (394) 
CC1(C)c2cc(-c3cnn(C4CCNCC4)c3)ccc2C(=O)c2c1[nH]c1cc(C#N)ccc21

>  <Standard Type>  (394) 
IC50

>  <Standard Relation>  (394) 
'='

>  <Standard Units>  (394) 
nM

>  <Standard Value>  (394) 
53.0

>  <Assay ChEMBL ID>  (394) 
CHEMBL3738493

>  <Assay Description>  (394) 
Inhibition of recombinant ALK (unknown origin) using poly (Glu, Tyr)4:1 substrate incubated for 60 mins by ELISA

>  <BAO Format ID>  (394) 
BAO_0000357

>  <BAO Label>  (394) 
single protein format

>  <Assay Organism>  (394) 
Homo sapiens

>  <Target ChEMBL ID>  (394) 
CHEMBL4247

>  <Target Name>  (394) 
ALK tyrosine kinase receptor

>  <Target Organism>  (394) 
Homo sapiens

>  <Target Type>  (394) 
SINGLE PROTEIN

>  <Document ChEMBL ID>  (394) 
CHEMBL3734710

>  <Source Description>  (394) 
Scientific Literature

>  <Document Journal>  (394) 
Eur J Med Chem

>  <Document Year>  (394) 
2015.0

>  <Active>  (394) 
1.0

>  <bits>  (394) 
<rdkit.DataStructs.cDataStructs.ExplicitBitVect object at 0x000002422F230120>

>  <Group>  (394) 
G2

$$$$

     RDKit          2D

 40 43  0  0  0  0  0  0  0  0999 V2000
    3.7500   -1.2990    0.0000 C   0  0  0  0  0  0  0  0  0  0  0  0
    3.0000    0.0000    0.0000 O   0  0  0  0  0  0  0  0  0  0  0  0
    1.5000    0.0000    0.0000 C   0  0  0  0  0  0  0  0  0  0  0  0
    0.7500   -1.2990    0.0000 C   0  0  0  0  0  0  0  0  0  0  0  0
   -0.7500   -1.2990    0.0000 C   0  0  0  0  0  0  0  0  0  0  0  0
   -1.5000    0.0000    0.0000 C   0  0  0  0  0  0  0  0  0  0  0  0
   -0.7500    1.2990    0.0000 C   0  0  0  0  0  0  0  0  0  0  0  0
    0.7500    1.2990    0.0000 C   0  0  0  0  0  0  0  0  0  0  0  0
    1.5000    2.5981    0.0000 N   0  0  0  0  0  0  0  0  0  0  0  0
    3.0000    2.5981    0.0000 C   0  0  0  0  0  0  0  0  0  0  0  0
    3.7500    1.2990    0.0000 N   0  0  0  0  0  0  0  0  0  0  0  0
    5.2500    1.2990    0.0000 C   0  0  0  0  0  0  0  0  0  0  0  0
    6.0000    2.5981    0.0000 C   0  0  0  0  0  0  0  0  0  0  0  0
    7.5000    2.5981    0.0000 Cl  0  0  0  0  0  0  0  0  0  0  0  0
    5.2500    3.8971    0.0000 C   0  0  0  0  0  0  0  0  0  0  0  0
    6.0000    5.1962    0.0000 N   0  0  0  0  0  0  0  0  0  0  0  0
    5.2500    6.4952    0.0000 C   0  0  0  0  0  0  0  0  0  0  0  0
    3.7500    6.4952    0.0000 C   0  0  0  0  0  0  0  0  0  0  0  0
    3.0000    7.7942    0.0000 C   0  0  0  0  0  0  0  0  0  0  0  0
    3.7500    9.0933    0.0000 C   0  0  0  0  0  0  0  0  0  0  0  0
    5.2500    9.0933    0.0000 C   0  0  0  0  0  0  0  0  0  0  0  0
    6.0000    7.7942    0.0000 C   0  0  0  0  0  0  0  0  0  0  0  0
    7.5000    7.7942    0.0000 S   0  0  0  0  0  0  0  0  0  0  0  0
    7.5000    6.2942    0.0000 O   0  0  0  0  0  0  0  0  0  0  0  0
    7.5000    9.2942    0.0000 O   0  0  0  0  0  0  0  0  0  0  0  0
    9.0000    7.7942    0.0000 C   0  0  0  0  0  0  0  0  0  0  0  0
    9.7500    9.0933    0.0000 C   0  0  0  0  0  0  0  0  0  0  0  0
    9.7500    6.4952    0.0000 C   0  0  0  0  0  0  0  0  0  0  0  0
    3.7500    3.8971    0.0000 N   0  0  0  0  0  0  0  0  0  0  0  0
   -3.0000    0.0000    0.0000 C   0  0  0  0  0  0  0  0  0  0  0  0
   -3.7500   -1.2990    0.0000 C   0  0  0  0  0  0  0  0  0  0  0  0
   -3.0000   -2.5981    0.0000 C   0  0  0  0  0  0  0  0  0  0  0  0
   -3.7500   -3.8971    0.0000 N   0  0  0  0  0  0  0  0  0  0  0  0
   -5.2500   -3.8971    0.0000 N   0  0  0  0  0  0  0  0  0  0  0  0
   -6.0000   -5.1962    0.0000 C   0  0  0  0  0  0  0  0  0  0  0  0
   -7.5000   -5.1962    0.0000 N   0  0  0  0  0  0  0  0  0  0  0  0
   -5.2500   -6.4952    0.0000 O   0  0  0  0  0  0  0  0  0  0  0  0
   -1.5000   -2.5981    0.0000 C   0  0  0  0  0  0  0  0  0  0  0  0
   -0.0905   -3.1111    0.0000 C   0  0  0  0  0  0  0  0  0  0  0  0
   -1.7605   -4.0753    0.0000 C   0  0  0  0  0  0  0  0  0  0  0  0
  1  2  1  0
  2  3  1  0
  3  4  2  0
  4  5  1  0
  5  6  2  0
  6  7  1  0
  7  8  2  0
  8  9  1  0
  9 10  1  0
 10 11  2  0
 11 12  1  0
 12 13  2  0
 13 14  1  0
 13 15  1  0
 15 16  1  0
 16 17  1  0
 17 18  2  0
 18 19  1  0
 19 20  2  0
 20 21  1  0
 21 22  2  0
 22 23  1  0
 23 24  2  0
 23 25  2  0
 23 26  1  0
 26 27  1  0
 26 28  1  0
 15 29  2  0
  6 30  1  0
 30 31  1  0
 31 32  1  0
 32 33  2  0
 33 34  1  0
 34 35  1  0
 35 36  1  0
 35 37  2  0
 32 38  1  0
 38 39  1  0
 38 40  1  0
  8  3  1  0
 29 10  1  0
 38  5  1  0
 22 17  1  0
M  END
>  <Compound_ID>  (395) 
CHEMBL3786127

>  <Molecule Name>  (395) 
nan

>  <Molecular Weight>  (395) 
586.12

>  <AlogP>  (395) 
5.06

>  <Smiles>  (395) 
COc1cc2c(cc1Nc1ncc(Cl)c(Nc3ccccc3S(=O)(=O)C(C)C)n1)CC/C(=N\NC(N)=O)C2(C)C

>  <Standard Type>  (395) 
IC50

>  <Standard Relation>  (395) 
'='

>  <Standard Units>  (395) 
nM

>  <Standard Value>  (395) 
29.0

>  <Assay ChEMBL ID>  (395) 
CHEMBL3791603

>  <Assay Description>  (395) 
Inhibition of wild type ALK (unknown origin) after 30 mins by HTRF assay

>  <BAO Format ID>  (395) 
BAO_0000357

>  <BAO Label>  (395) 
single protein format

>  <Assay Organism>  (395) 
Homo sapiens

>  <Target ChEMBL ID>  (395) 
CHEMBL4247

>  <Target Name>  (395) 
ALK tyrosine kinase receptor

>  <Target Organism>  (395) 
Homo sapiens

>  <Target Type>  (395) 
SINGLE PROTEIN

>  <Document ChEMBL ID>  (395) 
CHEMBL3784918

>  <Source Description>  (395) 
Scientific Literature

>  <Document Journal>  (395) 
Bioorg Med Chem Lett

>  <Document Year>  (395) 
2016.0

>  <Active>  (395) 
1.0

>  <bits>  (395) 
<rdkit.DataStructs.cDataStructs.ExplicitBitVect object at 0x000002422F2331B0>

>  <Group>  (395) 
G2

$$$$

     RDKit          2D

 33 35  0  0  0  0  0  0  0  0999 V2000
   -3.7500    3.8971    0.0000 C   0  0  0  0  0  0  0  0  0  0  0  0
   -2.2500    3.8971    0.0000 C   0  0  0  0  0  0  0  0  0  0  0  0
   -1.5000    5.1962    0.0000 C   0  0  0  0  0  0  0  0  0  0  0  0
   -1.5000    2.5981    0.0000 S   0  0  0  0  0  0  0  0  0  0  0  0
   -0.2010    3.3481    0.0000 O   0  0  0  0  0  0  0  0  0  0  0  0
   -2.7990    1.8481    0.0000 O   0  0  0  0  0  0  0  0  0  0  0  0
   -0.7500    1.2990    0.0000 C   0  0  0  0  0  0  0  0  0  0  0  0
   -1.5000   -0.0000    0.0000 C   0  0  0  0  0  0  0  0  0  0  0  0
   -0.7500   -1.2990    0.0000 C   0  0  0  0  0  0  0  0  0  0  0  0
    0.7500   -1.2990    0.0000 C   0  0  0  0  0  0  0  0  0  0  0  0
    1.5000   -0.0000    0.0000 C   0  0  0  0  0  0  0  0  0  0  0  0
    0.7500    1.2990    0.0000 C   0  0  0  0  0  0  0  0  0  0  0  0
    1.5000    2.5981    0.0000 N   0  0  0  0  0  0  0  0  0  0  0  0
    3.0000    2.5981    0.0000 C   0  0  0  0  0  0  0  0  0  0  0  0
    3.7500    1.2990    0.0000 N   0  0  0  0  0  0  0  0  0  0  0  0
    5.2500    1.2990    0.0000 C   0  0  0  0  0  0  0  0  0  0  0  0
    6.0000   -0.0000    0.0000 N   0  0  0  0  0  0  0  0  0  0  0  0
    7.5000   -0.0000    0.0000 C   0  0  0  0  0  0  0  0  0  0  0  0
    8.2500   -1.2990    0.0000 C   0  0  0  0  0  0  0  0  0  0  0  0
    9.7500   -1.2990    0.0000 C   0  0  0  0  0  0  0  0  0  0  0  0
   10.5000   -0.0000    0.0000 C   0  0  0  0  0  0  0  0  0  0  0  0
    9.7500    1.2990    0.0000 C   0  0  0  0  0  0  0  0  0  0  0  0
   10.5000    2.5981    0.0000 N   0  0  0  0  0  0  0  0  0  0  0  0
   12.0000    2.5981    0.0000 C   0  0  0  0  0  0  0  0  0  0  0  0
   12.7500    1.2990    0.0000 O   0  0  0  0  0  0  0  0  0  0  0  0
   12.7500    3.8971    0.0000 C   0  0  0  0  0  0  0  0  0  0  0  0
   14.2500    3.8971    0.0000 C   0  0  0  0  0  0  0  0  0  0  0  0
   12.0000    5.1962    0.0000 N   0  0  0  0  0  0  0  0  0  0  0  0
    8.2500    1.2990    0.0000 C   0  0  0  0  0  0  0  0  0  0  0  0
    6.0000    2.5981    0.0000 N   0  0  0  0  0  0  0  0  0  0  0  0
    5.2500    3.8971    0.0000 C   0  0  0  0  0  0  0  0  0  0  0  0
    3.7500    3.8971    0.0000 C   0  0  0  0  0  0  0  0  0  0  0  0
    3.0000    5.1962    0.0000 Cl  0  0  0  0  0  0  0  0  0  0  0  0
  1  2  1  0
  2  3  1  0
  2  4  1  0
  4  5  2  0
  4  6  2  0
  4  7  1  0
  7  8  2  0
  8  9  1  0
  9 10  2  0
 10 11  1  0
 11 12  2  0
 12 13  1  0
 13 14  1  0
 14 15  2  0
 15 16  1  0
 16 17  1  0
 17 18  1  0
 18 19  2  0
 19 20  1  0
 20 21  2  0
 21 22  1  0
 22 23  1  0
 23 24  1  0
 24 25  2  0
 24 26  1  0
 26 27  1  1
 26 28  1  0
 22 29  2  0
 16 30  2  0
 30 31  1  0
 31 32  2  0
 32 33  1  0
 12  7  1  0
 32 14  1  0
 29 18  1  0
M  END
>  <Compound_ID>  (396) 
CHEMBL3357444

>  <Molecule Name>  (396) 
nan

>  <Molecular Weight>  (396) 
489.0

>  <AlogP>  (396) 
4.09

>  <Smiles>  (396) 
CC(C)S(=O)(=O)c1ccccc1Nc1nc(Nc2cccc(NC(=O)[C@H](C)N)c2)ncc1Cl

>  <Standard Type>  (396) 
IC50

>  <Standard Relation>  (396) 
'='

>  <Standard Units>  (396) 
nM

>  <Standard Value>  (396) 
1.8

>  <Assay ChEMBL ID>  (396) 
CHEMBL3364272

>  <Assay Description>  (396) 
Inhibition of ALK (unknown origin) after 60 mins by ELISA

>  <BAO Format ID>  (396) 
BAO_0000357

>  <BAO Label>  (396) 
single protein format

>  <Assay Organism>  (396) 
Homo sapiens

>  <Target ChEMBL ID>  (396) 
CHEMBL4247

>  <Target Name>  (396) 
ALK tyrosine kinase receptor

>  <Target Organism>  (396) 
Homo sapiens

>  <Target Type>  (396) 
SINGLE PROTEIN

>  <Document ChEMBL ID>  (396) 
CHEMBL3351234

>  <Source Description>  (396) 
Scientific Literature

>  <Document Journal>  (396) 
J Med Chem

>  <Document Year>  (396) 
2015.0

>  <Active>  (396) 
1.0

>  <bits>  (396) 
<rdkit.DataStructs.cDataStructs.ExplicitBitVect object at 0x000002422F232B90>

>  <Group>  (396) 
G2

$$$$

     RDKit          2D

 47 51  0  0  0  0  0  0  0  0999 V2000
    5.2500   -1.2990    0.0000 C   0  0  0  0  0  0  0  0  0  0  0  0
    3.7500   -1.2990    0.0000 C   0  0  0  0  0  0  0  0  0  0  0  0
    3.0000   -2.5981    0.0000 C   0  0  0  0  0  0  0  0  0  0  0  0
    3.0000    0.0000    0.0000 O   0  0  0  0  0  0  0  0  0  0  0  0
    1.5000    0.0000    0.0000 C   0  0  0  0  0  0  0  0  0  0  0  0
    0.7500   -1.2990    0.0000 C   0  0  0  0  0  0  0  0  0  0  0  0
   -0.7500   -1.2990    0.0000 C   0  0  0  0  0  0  0  0  0  0  0  0
   -1.5000    0.0000    0.0000 C   0  0  0  0  0  0  0  0  0  0  0  0
   -0.7500    1.2990    0.0000 C   0  0  0  0  0  0  0  0  0  0  0  0
    0.7500    1.2990    0.0000 C   0  0  0  0  0  0  0  0  0  0  0  0
    1.5000    2.5981    0.0000 N   0  0  0  0  0  0  0  0  0  0  0  0
    3.0000    2.5981    0.0000 C   0  0  0  0  0  0  0  0  0  0  0  0
    3.7500    1.2990    0.0000 N   0  0  0  0  0  0  0  0  0  0  0  0
    5.2500    1.2990    0.0000 C   0  0  0  0  0  0  0  0  0  0  0  0
    6.0000    2.5981    0.0000 C   0  0  0  0  0  0  0  0  0  0  0  0
    7.5000    2.5981    0.0000 Cl  0  0  0  0  0  0  0  0  0  0  0  0
    5.2500    3.8971    0.0000 C   0  0  0  0  0  0  0  0  0  0  0  0
    6.0000    5.1962    0.0000 N   0  0  0  0  0  0  0  0  0  0  0  0
    5.2500    6.4952    0.0000 C   0  0  0  0  0  0  0  0  0  0  0  0
    3.7500    6.4952    0.0000 C   0  0  0  0  0  0  0  0  0  0  0  0
    3.0000    7.7942    0.0000 C   0  0  0  0  0  0  0  0  0  0  0  0
    3.7500    9.0933    0.0000 C   0  0  0  0  0  0  0  0  0  0  0  0
    5.2500    9.0933    0.0000 C   0  0  0  0  0  0  0  0  0  0  0  0
    6.0000    7.7942    0.0000 C   0  0  0  0  0  0  0  0  0  0  0  0
    7.5000    7.7942    0.0000 S   0  0  0  0  0  0  0  0  0  0  0  0
    7.5000    6.2942    0.0000 O   0  0  0  0  0  0  0  0  0  0  0  0
    7.5000    9.2942    0.0000 O   0  0  0  0  0  0  0  0  0  0  0  0
    9.0000    7.7942    0.0000 C   0  0  0  0  0  0  0  0  0  0  0  0
    9.7500    9.0933    0.0000 C   0  0  0  0  0  0  0  0  0  0  0  0
    9.7500    6.4952    0.0000 C   0  0  0  0  0  0  0  0  0  0  0  0
    3.7500    3.8971    0.0000 N   0  0  0  0  0  0  0  0  0  0  0  0
   -2.9672   -0.3119    0.0000 C   0  0  0  0  0  0  0  0  0  0  0  0
   -4.0819    0.6918    0.0000 O   0  0  0  0  0  0  0  0  0  0  0  0
   -3.1240   -1.8037    0.0000 N   0  0  0  0  0  0  0  0  0  0  0  0
   -4.4231   -2.5537    0.0000 C   0  0  0  0  0  0  0  0  0  0  0  0
   -5.7221   -1.8037    0.0000 C   0  0  0  0  0  0  0  0  0  0  0  0
   -7.0211   -2.5537    0.0000 C   0  0  0  0  0  0  0  0  0  0  0  0
   -7.0211   -4.0537    0.0000 N   0  0  0  0  0  0  0  0  0  0  0  0
   -8.3202   -4.8037    0.0000 C   0  0  0  0  0  0  0  0  0  0  0  0
   -8.3202   -6.3037    0.0000 O   0  0  0  0  0  0  0  0  0  0  0  0
   -9.6192   -4.0537    0.0000 C   0  0  0  0  0  0  0  0  0  0  0  0
  -10.9182   -4.8037    0.0000 N   0  0  0  0  0  0  0  0  0  0  0  0
  -12.2173   -4.0537    0.0000 C   0  0  0  0  0  0  0  0  0  0  0  0
  -10.9182   -6.3037    0.0000 C   0  0  0  0  0  0  0  0  0  0  0  0
   -5.7221   -4.8037    0.0000 C   0  0  0  0  0  0  0  0  0  0  0  0
   -4.4231   -4.0537    0.0000 C   0  0  0  0  0  0  0  0  0  0  0  0
   -1.7537   -2.4138    0.0000 C   0  0  0  0  0  0  0  0  0  0  0  0
  1  2  1  0
  2  3  1  0
  2  4  1  0
  4  5  1  0
  5  6  2  0
  6  7  1  0
  7  8  2  0
  8  9  1  0
  9 10  2  0
 10 11  1  0
 11 12  1  0
 12 13  2  0
 13 14  1  0
 14 15  2  0
 15 16  1  0
 15 17  1  0
 17 18  1  0
 18 19  1  0
 19 20  2  0
 20 21  1  0
 21 22  2  0
 22 23  1  0
 23 24  2  0
 24 25  1  0
 25 26  2  0
 25 27  2  0
 25 28  1  0
 28 29  1  0
 28 30  1  0
 17 31  2  0
  8 32  1  0
 32 33  2  0
 32 34  1  0
 34 35  1  0
 35 36  1  0
 36 37  1  0
 37 38  1  0
 38 39  1  0
 39 40  2  0
 39 41  1  0
 41 42  1  0
 42 43  1  0
 42 44  1  0
 38 45  1  0
 45 46  1  0
 34 47  1  0
 10  5  1  0
 31 12  1  0
 46 35  1  0
 47  7  1  0
 24 19  1  0
M  END
>  <Compound_ID>  (397) 
CHEMBL3651833

>  <Molecule Name>  (397) 
nan

>  <Molecular Weight>  (397) 
684.26

>  <AlogP>  (397) 
5.09

>  <Smiles>  (397) 
CC(C)Oc1cc2c(cc1Nc1ncc(Cl)c(Nc3ccccc3S(=O)(=O)C(C)C)n1)C(=O)N(C1CCN(C(=O)CN(C)C)CC1)C2

>  <Standard Type>  (397) 
IC50

>  <Standard Relation>  (397) 
'='

>  <Standard Units>  (397) 
nM

>  <Standard Value>  (397) 
6.0

>  <Assay ChEMBL ID>  (397) 
CHEMBL3705165

>  <Assay Description>  (397) 
Enzyme Assay: The inhibition of ALK tyrosine kinase activity may be demonstrated using known methods, for example using the recombinant kinase domain of the ALK in analogy to the VEGF-R kinase assay described in J. Wood et al. Cancer Res. 60, 2178-2189 (2000).

>  <BAO Format ID>  (397) 
BAO_0000357

>  <BAO Label>  (397) 
single protein format

>  <Assay Organism>  (397) 
Homo sapiens

>  <Target ChEMBL ID>  (397) 
CHEMBL4247

>  <Target Name>  (397) 
ALK tyrosine kinase receptor

>  <Target Organism>  (397) 
Homo sapiens

>  <Target Type>  (397) 
SINGLE PROTEIN

>  <Document ChEMBL ID>  (397) 
CHEMBL3638924

>  <Source Description>  (397) 
BindingDB Database

>  <Document Journal>  (397) 
nan

>  <Document Year>  (397) 
2013.0

>  <Active>  (397) 
1.0

>  <bits>  (397) 
<rdkit.DataStructs.cDataStructs.ExplicitBitVect object at 0x000002422F230190>

>  <Group>  (397) 
G2

$$$$

     RDKit          2D

 46 50  0  0  0  0  0  0  0  0999 V2000
   -1.5696   16.9661    0.0000 C   0  0  0  0  0  0  0  0  0  0  0  0
   -0.4549   15.9624    0.0000 C   0  0  0  0  0  0  0  0  0  0  0  0
   -0.7668   14.4952    0.0000 S   0  0  0  0  0  0  0  0  0  0  0  0
   -2.2340   14.8070    0.0000 O   0  0  0  0  0  0  0  0  0  0  0  0
    0.7004   14.1833    0.0000 O   0  0  0  0  0  0  0  0  0  0  0  0
   -1.0786   13.0279    0.0000 N   0  0  0  0  0  0  0  0  0  0  0  0
    0.0361   12.0242    0.0000 C   0  0  0  0  0  0  0  0  0  0  0  0
   -0.2758   10.5570    0.0000 C   0  0  0  0  0  0  0  0  0  0  0  0
   -1.7024   10.0935    0.0000 C   0  0  0  0  0  0  0  0  0  0  0  0
   -2.0143    8.6263    0.0000 C   0  0  0  0  0  0  0  0  0  0  0  0
   -3.4408    8.1628    0.0000 C   0  0  0  0  0  0  0  0  0  0  0  0
   -3.7527    6.6955    0.0000 C   0  0  0  0  0  0  0  0  0  0  0  0
   -5.1793    6.2320    0.0000 O   0  0  0  0  0  0  0  0  0  0  0  0
   -6.2940    7.2357    0.0000 C   0  0  0  0  0  0  0  0  0  0  0  0
   -7.7206    6.7722    0.0000 C   0  0  0  0  0  0  0  0  0  0  0  0
   -5.9821    8.7029    0.0000 C   0  0  0  0  0  0  0  0  0  0  0  0
   -2.6380    5.6918    0.0000 C   0  0  0  0  0  0  0  0  0  0  0  0
   -2.9499    4.2246    0.0000 N   0  0  0  0  0  0  0  0  0  0  0  0
   -1.8351    3.2209    0.0000 C   0  0  0  0  0  0  0  0  0  0  0  0
   -0.4086    3.6844    0.0000 N   0  0  0  0  0  0  0  0  0  0  0  0
    0.7062    2.6807    0.0000 C   0  0  0  0  0  0  0  0  0  0  0  0
    2.1328    3.1443    0.0000 N   0  0  0  0  0  0  0  0  0  0  0  0
    2.4446    4.6115    0.0000 C   0  0  0  0  0  0  0  0  0  0  0  0
    1.3299    5.6152    0.0000 C   0  0  0  0  0  0  0  0  0  0  0  0
    1.6418    7.0824    0.0000 C   0  0  0  0  0  0  0  0  0  0  0  0
    3.0684    7.5459    0.0000 C   0  0  0  0  0  0  0  0  0  0  0  0
    4.1831    6.5422    0.0000 C   0  0  0  0  0  0  0  0  0  0  0  0
    3.8712    5.0750    0.0000 C   0  0  0  0  0  0  0  0  0  0  0  0
    4.9859    4.0713    0.0000 S   0  0  0  0  0  0  0  0  0  0  0  0
    3.9822    2.9566    0.0000 O   0  0  0  0  0  0  0  0  0  0  0  0
    5.9896    5.1860    0.0000 O   0  0  0  0  0  0  0  0  0  0  0  0
    6.1006    3.0676    0.0000 C   0  0  0  0  0  0  0  0  0  0  0  0
    5.7888    1.6004    0.0000 C   0  0  0  0  0  0  0  0  0  0  0  0
    7.5272    3.5312    0.0000 C   0  0  0  0  0  0  0  0  0  0  0  0
    0.3943    1.2135    0.0000 C   0  0  0  0  0  0  0  0  0  0  0  0
    1.2760    0.0000    0.0000 C   0  0  0  0  0  0  0  0  0  0  0  0
    2.7760    0.0000    0.0000 C   0  0  0  0  0  0  0  0  0  0  0  0
    0.3943   -1.2135    0.0000 N   0  0  0  0  0  0  0  0  0  0  0  0
   -1.0323   -0.7500    0.0000 N   0  0  0  0  0  0  0  0  0  0  0  0
   -1.0323    0.7500    0.0000 C   0  0  0  0  0  0  0  0  0  0  0  0
   -2.1470    1.7537    0.0000 N   0  0  0  0  0  0  0  0  0  0  0  0
   -1.2114    6.1554    0.0000 C   0  0  0  0  0  0  0  0  0  0  0  0
   -0.8995    7.6226    0.0000 C   0  0  0  0  0  0  0  0  0  0  0  0
    0.5271    8.0861    0.0000 C   0  0  0  0  0  0  0  0  0  0  0  0
   -2.8171   11.0972    0.0000 C   0  0  0  0  0  0  0  0  0  0  0  0
   -2.5052   12.5644    0.0000 C   0  0  0  0  0  0  0  0  0  0  0  0
  1  2  1  0
  2  3  1  0
  3  4  2  0
  3  5  2  0
  3  6  1  0
  6  7  1  0
  7  8  1  0
  8  9  1  0
  9 10  1  0
 10 11  2  0
 11 12  1  0
 12 13  1  0
 13 14  1  0
 14 15  1  0
 14 16  1  0
 12 17  2  0
 17 18  1  0
 18 19  1  0
 19 20  1  0
 20 21  2  0
 21 22  1  0
 22 23  1  0
 23 24  2  0
 24 25  1  0
 25 26  2  0
 26 27  1  0
 27 28  2  0
 28 29  1  0
 29 30  2  0
 29 31  2  0
 29 32  1  0
 32 33  1  0
 32 34  1  0
 21 35  1  0
 35 36  2  0
 36 37  1  0
 36 38  1  0
 38 39  1  0
 39 40  2  0
 40 41  1  0
 17 42  1  0
 42 43  2  0
 43 44  1  0
  9 45  1  0
 45 46  1  0
 46  6  1  0
 43 10  1  0
 41 19  2  0
 28 23  1  0
 40 35  1  0
M  END
>  <Compound_ID>  (398) 
CHEMBL3651878

>  <Molecule Name>  (398) 
nan

>  <Molecular Weight>  (398) 
669.87

>  <AlogP>  (398) 
5.96

>  <Smiles>  (398) 
CCS(=O)(=O)N1CCC(c2cc(OC(C)C)c(Nc3nc(Nc4ccccc4S(=O)(=O)C(C)C)c4c(C)[nH]nc4n3)cc2C)CC1

>  <Standard Type>  (398) 
IC50

>  <Standard Relation>  (398) 
'='

>  <Standard Units>  (398) 
nM

>  <Standard Value>  (398) 
92.0

>  <Assay ChEMBL ID>  (398) 
CHEMBL3705165

>  <Assay Description>  (398) 
Enzyme Assay: The inhibition of ALK tyrosine kinase activity may be demonstrated using known methods, for example using the recombinant kinase domain of the ALK in analogy to the VEGF-R kinase assay described in J. Wood et al. Cancer Res. 60, 2178-2189 (2000).

>  <BAO Format ID>  (398) 
BAO_0000357

>  <BAO Label>  (398) 
single protein format

>  <Assay Organism>  (398) 
Homo sapiens

>  <Target ChEMBL ID>  (398) 
CHEMBL4247

>  <Target Name>  (398) 
ALK tyrosine kinase receptor

>  <Target Organism>  (398) 
Homo sapiens

>  <Target Type>  (398) 
SINGLE PROTEIN

>  <Document ChEMBL ID>  (398) 
CHEMBL3638924

>  <Source Description>  (398) 
BindingDB Database

>  <Document Journal>  (398) 
nan

>  <Document Year>  (398) 
2013.0

>  <Active>  (398) 
1.0

>  <bits>  (398) 
<rdkit.DataStructs.cDataStructs.ExplicitBitVect object at 0x000002422F2323B0>

>  <Group>  (398) 
G2

$$$$

     RDKit          2D

 37 41  0  0  0  0  0  0  0  0999 V2000
   -6.8516   -6.6578    0.0000 C   0  0  0  0  0  0  0  0  0  0  0  0
   -5.6381   -7.5395    0.0000 C   0  0  0  0  0  0  0  0  0  0  0  0
   -4.2677   -6.9294    0.0000 C   0  0  0  0  0  0  0  0  0  0  0  0
   -4.1110   -5.4376    0.0000 C   0  0  0  0  0  0  0  0  0  0  0  0
   -2.7406   -4.8275    0.0000 C   0  0  0  0  0  0  0  0  0  0  0  0
   -1.5271   -5.7092    0.0000 C   0  0  0  0  0  0  0  0  0  0  0  0
   -1.6839   -7.2010    0.0000 C   0  0  0  0  0  0  0  0  0  0  0  0
   -3.0542   -7.8111    0.0000 C   0  0  0  0  0  0  0  0  0  0  0  0
   -3.2110   -9.3029    0.0000 N   0  0  0  0  0  0  0  0  0  0  0  0
   -1.9975  -10.1845    0.0000 C   0  0  0  0  0  0  0  0  0  0  0  0
   -0.6272   -9.5744    0.0000 O   0  0  0  0  0  0  0  0  0  0  0  0
   -2.1543  -11.6763    0.0000 N   0  0  0  0  0  0  0  0  0  0  0  0
   -3.5246  -12.2864    0.0000 C   0  0  0  0  0  0  0  0  0  0  0  0
   -3.6814  -13.7782    0.0000 C   0  0  0  0  0  0  0  0  0  0  0  0
   -2.4679  -14.6599    0.0000 C   0  0  0  0  0  0  0  0  0  0  0  0
   -2.6247  -16.1517    0.0000 C   0  0  0  0  0  0  0  0  0  0  0  0
   -1.1329  -16.3085    0.0000 C   0  0  0  0  0  0  0  0  0  0  0  0
   -4.1164  -15.9949    0.0000 C   0  0  0  0  0  0  0  0  0  0  0  0
   -2.7815  -17.6435    0.0000 O   0  0  0  0  0  0  0  0  0  0  0  0
   -1.0975  -14.0498    0.0000 C   0  0  0  0  0  0  0  0  0  0  0  0
   -0.9408  -12.5580    0.0000 C   0  0  0  0  0  0  0  0  0  0  0  0
   -0.1568   -5.0991    0.0000 C   0  0  0  0  0  0  0  0  0  0  0  0
    1.3396   -4.9944    0.0000 C   0  0  0  0  0  0  0  0  0  0  0  0
    0.2061   -6.5545    0.0000 C   0  0  0  0  0  0  0  0  0  0  0  0
   -0.0000   -3.6073    0.0000 C   0  0  0  0  0  0  0  0  0  0  0  0
    1.2135   -2.7256    0.0000 N   0  0  0  0  0  0  0  0  0  0  0  0
    0.7500   -1.2990    0.0000 C   0  0  0  0  0  0  0  0  0  0  0  0
    1.5000    0.0000    0.0000 C   0  0  0  0  0  0  0  0  0  0  0  0
    0.7500    1.2990    0.0000 C   0  0  0  0  0  0  0  0  0  0  0  0
    1.5000    2.5981    0.0000 C   0  0  0  0  0  0  0  0  0  0  0  0
    2.2500    3.8971    0.0000 N   0  0  0  0  0  0  0  0  0  0  0  0
   -0.7500    1.2990    0.0000 C   0  0  0  0  0  0  0  0  0  0  0  0
   -1.5000    0.0000    0.0000 C   0  0  0  0  0  0  0  0  0  0  0  0
   -0.7500   -1.2990    0.0000 C   0  0  0  0  0  0  0  0  0  0  0  0
   -1.2135   -2.7256    0.0000 C   0  0  0  0  0  0  0  0  0  0  0  0
   -2.5838   -3.3357    0.0000 C   0  0  0  0  0  0  0  0  0  0  0  0
   -3.7974   -2.4540    0.0000 O   0  0  0  0  0  0  0  0  0  0  0  0
  1  2  1  0
  2  3  1  0
  3  4  2  0
  4  5  1  0
  5  6  2  0
  6  7  1  0
  7  8  2  0
  8  9  1  0
  9 10  1  0
 10 11  2  0
 10 12  1  0
 12 13  1  0
 13 14  1  0
 14 15  1  0
 15 16  1  0
 16 17  1  0
 16 18  1  0
 16 19  1  0
 15 20  1  0
 20 21  1  0
  6 22  1  0
 22 23  1  0
 22 24  1  0
 22 25  1  0
 25 26  1  0
 26 27  1  0
 27 28  2  0
 28 29  1  0
 29 30  1  0
 30 31  3  0
 29 32  2  0
 32 33  1  0
 33 34  2  0
 34 35  1  0
 35 36  1  0
 36 37  2  0
  8  3  1  0
 21 12  1  0
 35 25  2  0
 36  5  1  0
 34 27  1  0
M  END
>  <Compound_ID>  (399) 
CHEMBL3735811

>  <Molecule Name>  (399) 
nan

>  <Molecular Weight>  (399) 
498.63

>  <AlogP>  (399) 
5.49

>  <Smiles>  (399) 
CCc1cc2c(cc1NC(=O)N1CCC(C(C)(C)O)CC1)C(C)(C)c1[nH]c3cc(C#N)ccc3c1C2=O

>  <Standard Type>  (399) 
IC50

>  <Standard Relation>  (399) 
'='

>  <Standard Units>  (399) 
nM

>  <Standard Value>  (399) 
21.0

>  <Assay ChEMBL ID>  (399) 
CHEMBL3738493

>  <Assay Description>  (399) 
Inhibition of recombinant ALK (unknown origin) using poly (Glu, Tyr)4:1 substrate incubated for 60 mins by ELISA

>  <BAO Format ID>  (399) 
BAO_0000357

>  <BAO Label>  (399) 
single protein format

>  <Assay Organism>  (399) 
Homo sapiens

>  <Target ChEMBL ID>  (399) 
CHEMBL4247

>  <Target Name>  (399) 
ALK tyrosine kinase receptor

>  <Target Organism>  (399) 
Homo sapiens

>  <Target Type>  (399) 
SINGLE PROTEIN

>  <Document ChEMBL ID>  (399) 
CHEMBL3734710

>  <Source Description>  (399) 
Scientific Literature

>  <Document Journal>  (399) 
Eur J Med Chem

>  <Document Year>  (399) 
2015.0

>  <Active>  (399) 
1.0

>  <bits>  (399) 
<rdkit.DataStructs.cDataStructs.ExplicitBitVect object at 0x000002422F232570>

>  <Group>  (399) 
G2

$$$$

     RDKit          2D

 36 40  0  0  0  0  0  0  0  0999 V2000
    2.7760    0.0000    0.0000 C   0  0  0  0  0  0  0  0  0  0  0  0
    1.2760    0.0000    0.0000 C   0  0  0  0  0  0  0  0  0  0  0  0
    0.3943    1.2135    0.0000 N   0  0  0  0  0  0  0  0  0  0  0  0
   -1.0323    0.7500    0.0000 N   0  0  0  0  0  0  0  0  0  0  0  0
   -1.0323   -0.7500    0.0000 C   0  0  0  0  0  0  0  0  0  0  0  0
   -2.1470   -1.7537    0.0000 N   0  0  0  0  0  0  0  0  0  0  0  0
   -1.8351   -3.2209    0.0000 C   0  0  0  0  0  0  0  0  0  0  0  0
   -2.9499   -4.2246    0.0000 N   0  0  0  0  0  0  0  0  0  0  0  0
   -4.3764   -3.7611    0.0000 C   0  0  0  0  0  0  0  0  0  0  0  0
   -4.6883   -2.2939    0.0000 C   0  0  0  0  0  0  0  0  0  0  0  0
   -6.1149   -1.8303    0.0000 C   0  0  0  0  0  0  0  0  0  0  0  0
   -7.2296   -2.8340    0.0000 C   0  0  0  0  0  0  0  0  0  0  0  0
   -8.6562   -2.3705    0.0000 C   0  0  0  0  0  0  0  0  0  0  0  0
   -8.9681   -0.9033    0.0000 C   0  0  0  0  0  0  0  0  0  0  0  0
  -10.3946   -0.4398    0.0000 C   0  0  0  0  0  0  0  0  0  0  0  0
  -11.5094   -1.4435    0.0000 N   0  0  0  0  0  0  0  0  0  0  0  0
  -11.1975   -2.9107    0.0000 C   0  0  0  0  0  0  0  0  0  0  0  0
   -9.7709   -3.3742    0.0000 C   0  0  0  0  0  0  0  0  0  0  0  0
   -6.9177   -4.3013    0.0000 C   0  0  0  0  0  0  0  0  0  0  0  0
   -5.4912   -4.7648    0.0000 C   0  0  0  0  0  0  0  0  0  0  0  0
   -0.4086   -3.6844    0.0000 N   0  0  0  0  0  0  0  0  0  0  0  0
    0.7062   -2.6807    0.0000 C   0  0  0  0  0  0  0  0  0  0  0  0
    2.1328   -3.1443    0.0000 N   0  0  0  0  0  0  0  0  0  0  0  0
    2.4446   -4.6115    0.0000 C   0  0  0  0  0  0  0  0  0  0  0  0
    1.3299   -5.6152    0.0000 C   0  0  0  0  0  0  0  0  0  0  0  0
    1.6418   -7.0824    0.0000 C   0  0  0  0  0  0  0  0  0  0  0  0
    3.0684   -7.5459    0.0000 C   0  0  0  0  0  0  0  0  0  0  0  0
    4.1831   -6.5422    0.0000 C   0  0  0  0  0  0  0  0  0  0  0  0
    3.8712   -5.0750    0.0000 C   0  0  0  0  0  0  0  0  0  0  0  0
    4.9859   -4.0713    0.0000 S   0  0  0  0  0  0  0  0  0  0  0  0
    3.9822   -2.9566    0.0000 O   0  0  0  0  0  0  0  0  0  0  0  0
    5.9896   -5.1860    0.0000 O   0  0  0  0  0  0  0  0  0  0  0  0
    6.1006   -3.0676    0.0000 C   0  0  0  0  0  0  0  0  0  0  0  0
    5.7888   -1.6004    0.0000 C   0  0  0  0  0  0  0  0  0  0  0  0
    7.5272   -3.5312    0.0000 C   0  0  0  0  0  0  0  0  0  0  0  0
    0.3943   -1.2135    0.0000 C   0  0  0  0  0  0  0  0  0  0  0  0
  1  2  1  0
  2  3  1  0
  3  4  1  0
  4  5  2  0
  5  6  1  0
  6  7  2  0
  7  8  1  0
  8  9  1  0
  9 10  2  0
 10 11  1  0
 11 12  2  0
 12 13  1  0
 13 14  1  0
 14 15  1  0
 15 16  1  0
 16 17  1  0
 17 18  1  0
 12 19  1  0
 19 20  2  0
  7 21  1  0
 21 22  2  0
 22 23  1  0
 23 24  1  0
 24 25  2  0
 25 26  1  0
 26 27  2  0
 27 28  1  0
 28 29  2  0
 29 30  1  0
 30 31  2  0
 30 32  2  0
 30 33  1  0
 33 34  1  0
 33 35  1  0
 22 36  1  0
 36  2  2  0
 36  5  1  0
 20  9  1  0
 29 24  1  0
 18 13  1  0
M  END
>  <Compound_ID>  (400) 
CHEMBL3651870

>  <Molecule Name>  (400) 
nan

>  <Molecular Weight>  (400) 
505.65

>  <AlogP>  (400) 
4.80

>  <Smiles>  (400) 
Cc1[nH]nc2nc(Nc3ccc(C4CCNCC4)cc3)nc(Nc3ccccc3S(=O)(=O)C(C)C)c12

>  <Standard Type>  (400) 
IC50

>  <Standard Relation>  (400) 
'='

>  <Standard Units>  (400) 
nM

>  <Standard Value>  (400) 
17.0

>  <Assay ChEMBL ID>  (400) 
CHEMBL3705165

>  <Assay Description>  (400) 
Enzyme Assay: The inhibition of ALK tyrosine kinase activity may be demonstrated using known methods, for example using the recombinant kinase domain of the ALK in analogy to the VEGF-R kinase assay described in J. Wood et al. Cancer Res. 60, 2178-2189 (2000).

>  <BAO Format ID>  (400) 
BAO_0000357

>  <BAO Label>  (400) 
single protein format

>  <Assay Organism>  (400) 
Homo sapiens

>  <Target ChEMBL ID>  (400) 
CHEMBL4247

>  <Target Name>  (400) 
ALK tyrosine kinase receptor

>  <Target Organism>  (400) 
Homo sapiens

>  <Target Type>  (400) 
SINGLE PROTEIN

>  <Document ChEMBL ID>  (400) 
CHEMBL3638924

>  <Source Description>  (400) 
BindingDB Database

>  <Document Journal>  (400) 
nan

>  <Document Year>  (400) 
2013.0

>  <Active>  (400) 
1.0

>  <bits>  (400) 
<rdkit.DataStructs.cDataStructs.ExplicitBitVect object at 0x000002422F2319A0>

>  <Group>  (400) 
G2

$$$$

     RDKit          2D

 35 39  0  0  0  0  0  0  0  0999 V2000
   -9.4612   -4.0396    0.0000 C   0  0  0  0  0  0  0  0  0  0  0  0
   -8.0346   -3.5760    0.0000 N   0  0  0  0  0  0  0  0  0  0  0  0
   -6.9199   -4.5797    0.0000 C   0  0  0  0  0  0  0  0  0  0  0  0
   -7.2317   -6.0469    0.0000 O   0  0  0  0  0  0  0  0  0  0  0  0
   -5.4933   -4.1162    0.0000 C   0  0  0  0  0  0  0  0  0  0  0  0
   -5.1814   -2.6490    0.0000 C   0  0  0  0  0  0  0  0  0  0  0  0
   -3.7548   -2.1855    0.0000 C   0  0  0  0  0  0  0  0  0  0  0  0
   -2.6401   -3.1891    0.0000 C   0  0  0  0  0  0  0  0  0  0  0  0
   -1.2135   -2.7256    0.0000 N   0  0  0  0  0  0  0  0  0  0  0  0
   -0.0000   -3.6073    0.0000 C   0  0  0  0  0  0  0  0  0  0  0  0
   -0.0000   -5.1073    0.0000 N   0  0  0  0  0  0  0  0  0  0  0  0
    1.2990   -5.8573    0.0000 C   0  0  0  0  0  0  0  0  0  0  0  0
    2.5981   -5.1073    0.0000 O   0  0  0  0  0  0  0  0  0  0  0  0
    1.2990   -7.3573    0.0000 C   0  0  0  0  0  0  0  0  0  0  0  0
   -0.0000   -8.1073    0.0000 C   0  0  0  0  0  0  0  0  0  0  0  0
   -0.0000   -9.6073    0.0000 C   0  0  0  0  0  0  0  0  0  0  0  0
    1.2990  -10.3573    0.0000 C   0  0  0  0  0  0  0  0  0  0  0  0
    2.5981   -9.6073    0.0000 C   0  0  0  0  0  0  0  0  0  0  0  0
    2.5981   -8.1073    0.0000 C   0  0  0  0  0  0  0  0  0  0  0  0
    1.2135   -2.7256    0.0000 N   0  0  0  0  0  0  0  0  0  0  0  0
    0.7500   -1.2990    0.0000 C   0  0  0  0  0  0  0  0  0  0  0  0
    1.5000    0.0000    0.0000 C   0  0  0  0  0  0  0  0  0  0  0  0
    0.7500    1.2990    0.0000 C   0  0  0  0  0  0  0  0  0  0  0  0
   -0.7500    1.2990    0.0000 C   0  0  0  0  0  0  0  0  0  0  0  0
   -1.5000    2.5981    0.0000 C   0  0  0  0  0  0  0  0  0  0  0  0
   -0.7500    3.8971    0.0000 N   0  0  0  0  0  0  0  0  0  0  0  0
    0.7500    3.8971    0.0000 C   0  0  0  0  0  0  0  0  0  0  0  0
    1.5000    5.1962    0.0000 C   0  0  0  0  0  0  0  0  0  0  0  0
    0.7500    6.4952    0.0000 C   0  0  0  0  0  0  0  0  0  0  0  0
   -0.7500    6.4952    0.0000 C   0  0  0  0  0  0  0  0  0  0  0  0
   -1.5000    5.1962    0.0000 C   0  0  0  0  0  0  0  0  0  0  0  0
   -1.5000    0.0000    0.0000 C   0  0  0  0  0  0  0  0  0  0  0  0
   -0.7500   -1.2990    0.0000 C   0  0  0  0  0  0  0  0  0  0  0  0
   -2.9520   -4.6564    0.0000 C   0  0  0  0  0  0  0  0  0  0  0  0
   -4.3786   -5.1199    0.0000 C   0  0  0  0  0  0  0  0  0  0  0  0
  1  2  1  0
  2  3  1  0
  3  4  2  0
  5  3  1  1
  5  6  1  0
  6  7  1  0
  7  8  1  0
  8  9  1  1
  9 10  1  0
 10 11  2  0
 11 12  1  0
 12 13  2  0
 12 14  1  0
 14 15  2  0
 15 16  1  0
 16 17  2  0
 17 18  1  0
 18 19  2  0
 10 20  1  0
 20 21  1  0
 21 22  2  0
 22 23  1  0
 23 24  2  0
 24 25  1  0
 25 26  1  0
 26 27  1  0
 27 28  1  0
 28 29  1  0
 29 30  1  0
 30 31  1  0
 24 32  1  0
 32 33  2  0
  8 34  1  0
 34 35  1  0
 35  5  1  0
 33  9  1  0
 19 14  1  0
 33 21  1  0
 31 26  1  0
M  END
>  <Compound_ID>  (401) 
CHEMBL4476742

>  <Molecule Name>  (401) 
nan

>  <Molecular Weight>  (401) 
473.62

>  <AlogP>  (401) 
4.17

>  <Smiles>  (401) 
CNC(=O)[C@H]1CC[C@@H](n2/c(=N/C(=O)c3ccccc3)[nH]c3ccc(CN4CCCCC4)cc32)CC1

>  <Standard Type>  (401) 
IC50

>  <Standard Relation>  (401) 
'='

>  <Standard Units>  (401) 
nM

>  <Standard Value>  (401) 
2.0

>  <Assay ChEMBL ID>  (401) 
CHEMBL4378233

>  <Assay Description>  (401) 
Inhibition of ALK (unknown origin)

>  <BAO Format ID>  (401) 
BAO_0000357

>  <BAO Label>  (401) 
single protein format

>  <Assay Organism>  (401) 
Homo sapiens

>  <Target ChEMBL ID>  (401) 
CHEMBL4247

>  <Target Name>  (401) 
ALK tyrosine kinase receptor

>  <Target Organism>  (401) 
Homo sapiens

>  <Target Type>  (401) 
SINGLE PROTEIN

>  <Document ChEMBL ID>  (401) 
CHEMBL4376817

>  <Source Description>  (401) 
Scientific Literature

>  <Document Journal>  (401) 
J Med Chem

>  <Document Year>  (401) 
2019.0

>  <Active>  (401) 
1.0

>  <bits>  (401) 
<rdkit.DataStructs.cDataStructs.ExplicitBitVect object at 0x000002422F2317E0>

>  <Group>  (401) 
G2

$$$$

     RDKit          2D

 42 46  0  0  0  0  0  0  0  0999 V2000
   -1.9700  -12.5326    0.0000 C   0  0  0  0  0  0  0  0  0  0  0  0
   -3.0847  -11.5290    0.0000 O   0  0  0  0  0  0  0  0  0  0  0  0
   -2.7729  -10.0617    0.0000 C   0  0  0  0  0  0  0  0  0  0  0  0
   -3.8876   -9.0580    0.0000 C   0  0  0  0  0  0  0  0  0  0  0  0
   -5.3142   -9.5216    0.0000 C   0  0  0  0  0  0  0  0  0  0  0  0
   -5.6260  -10.9888    0.0000 O   0  0  0  0  0  0  0  0  0  0  0  0
   -7.0526  -11.4523    0.0000 C   0  0  0  0  0  0  0  0  0  0  0  0
   -3.5757   -7.5908    0.0000 N   0  0  0  0  0  0  0  0  0  0  0  0
   -4.6904   -6.5871    0.0000 C   0  0  0  0  0  0  0  0  0  0  0  0
   -6.1170   -7.0506    0.0000 C   0  0  0  0  0  0  0  0  0  0  0  0
   -7.2317   -6.0469    0.0000 C   0  0  0  0  0  0  0  0  0  0  0  0
   -8.6583   -6.5105    0.0000 N   0  0  0  0  0  0  0  0  0  0  0  0
   -9.7730   -5.5068    0.0000 C   0  0  0  0  0  0  0  0  0  0  0  0
  -11.1996   -5.9703    0.0000 C   0  0  0  0  0  0  0  0  0  0  0  0
  -11.5115   -7.4375    0.0000 N   0  0  0  0  0  0  0  0  0  0  0  0
  -12.9381   -7.9010    0.0000 C   0  0  0  0  0  0  0  0  0  0  0  0
  -10.3968   -8.4412    0.0000 C   0  0  0  0  0  0  0  0  0  0  0  0
   -8.9702   -7.9777    0.0000 C   0  0  0  0  0  0  0  0  0  0  0  0
   -6.9199   -4.5797    0.0000 C   0  0  0  0  0  0  0  0  0  0  0  0
   -5.4933   -4.1162    0.0000 C   0  0  0  0  0  0  0  0  0  0  0  0
   -4.3786   -5.1199    0.0000 C   0  0  0  0  0  0  0  0  0  0  0  0
   -2.9520   -4.6564    0.0000 C   0  0  0  0  0  0  0  0  0  0  0  0
   -1.8373   -5.6601    0.0000 O   0  0  0  0  0  0  0  0  0  0  0  0
   -2.6401   -3.1891    0.0000 N   0  0  0  0  0  0  0  0  0  0  0  0
   -1.2135   -2.7256    0.0000 C   0  0  0  0  0  0  0  0  0  0  0  0
   -0.0000   -3.6073    0.0000 N   0  0  0  0  0  0  0  0  0  0  0  0
    1.2135   -2.7256    0.0000 N   0  0  0  0  0  0  0  0  0  0  0  0
    0.7500   -1.2990    0.0000 C   0  0  0  0  0  0  0  0  0  0  0  0
    1.5000    0.0000    0.0000 C   0  0  0  0  0  0  0  0  0  0  0  0
    0.7500    1.2990    0.0000 C   0  0  0  0  0  0  0  0  0  0  0  0
   -0.7500    1.2990    0.0000 C   0  0  0  0  0  0  0  0  0  0  0  0
   -1.5000    2.5981    0.0000 C   0  0  0  0  0  0  0  0  0  0  0  0
   -0.7500    3.8971    0.0000 C   0  0  0  0  0  0  0  0  0  0  0  0
    0.7500    3.8971    0.0000 C   0  0  0  0  0  0  0  0  0  0  0  0
    1.5000    5.1962    0.0000 C   0  0  0  0  0  0  0  0  0  0  0  0
    3.0000    5.1962    0.0000 F   0  0  0  0  0  0  0  0  0  0  0  0
    0.7500    6.4952    0.0000 C   0  0  0  0  0  0  0  0  0  0  0  0
   -0.7500    6.4952    0.0000 C   0  0  0  0  0  0  0  0  0  0  0  0
   -1.5000    7.7942    0.0000 F   0  0  0  0  0  0  0  0  0  0  0  0
   -1.5000    5.1962    0.0000 C   0  0  0  0  0  0  0  0  0  0  0  0
   -1.5000    0.0000    0.0000 C   0  0  0  0  0  0  0  0  0  0  0  0
   -0.7500   -1.2990    0.0000 C   0  0  0  0  0  0  0  0  0  0  0  0
  1  2  1  0
  2  3  1  0
  3  4  1  0
  4  5  1  0
  5  6  1  0
  6  7  1  0
  4  8  1  0
  8  9  1  0
  9 10  2  0
 10 11  1  0
 11 12  1  0
 12 13  1  0
 13 14  1  0
 14 15  1  0
 15 16  1  0
 15 17  1  0
 17 18  1  0
 11 19  2  0
 19 20  1  0
 20 21  2  0
 21 22  1  0
 22 23  2  0
 22 24  1  0
 24 25  1  0
 25 26  2  0
 26 27  1  0
 27 28  1  0
 28 29  2  0
 29 30  1  0
 30 31  2  0
 31 32  1  0
 32 33  1  0
 33 34  2  0
 34 35  1  0
 35 36  1  0
 35 37  2  0
 37 38  1  0
 38 39  1  0
 38 40  2  0
 31 41  1  0
 41 42  2  0
 21  9  1  0
 42 25  1  0
 18 12  1  0
 42 28  1  0
 40 33  1  0
M  END
>  <Compound_ID>  (402) 
CHEMBL3805254

>  <Molecule Name>  (402) 
nan

>  <Molecular Weight>  (402) 
578.66

>  <AlogP>  (402) 
4.51

>  <Smiles>  (402) 
COCC(COC)Nc1cc(N2CCN(C)CC2)ccc1C(=O)Nc1n[nH]c2ccc(Cc3cc(F)cc(F)c3)cc12

>  <Standard Type>  (402) 
IC50

>  <Standard Relation>  (402) 
'='

>  <Standard Units>  (402) 
nM

>  <Standard Value>  (402) 
99.0

>  <Assay ChEMBL ID>  (402) 
CHEMBL3806916

>  <Assay Description>  (402) 
Inhibition of recombinant ALK (unknown origin) in presence of gamma33-ATP

>  <BAO Format ID>  (402) 
BAO_0000357

>  <BAO Label>  (402) 
single protein format

>  <Assay Organism>  (402) 
Homo sapiens

>  <Target ChEMBL ID>  (402) 
CHEMBL4247

>  <Target Name>  (402) 
ALK tyrosine kinase receptor

>  <Target Organism>  (402) 
Homo sapiens

>  <Target Type>  (402) 
SINGLE PROTEIN

>  <Document ChEMBL ID>  (402) 
CHEMBL3804811

>  <Source Description>  (402) 
Scientific Literature

>  <Document Journal>  (402) 
J Med Chem

>  <Document Year>  (402) 
2016.0

>  <Active>  (402) 
1.0

>  <bits>  (402) 
<rdkit.DataStructs.cDataStructs.ExplicitBitVect object at 0x000002422F232AB0>

>  <Group>  (402) 
G2

$$$$

     RDKit          2D

 42 47  0  0  0  0  0  0  0  0999 V2000
  -12.9381   -7.9010    0.0000 C   0  0  0  0  0  0  0  0  0  0  0  0
  -11.5115   -7.4375    0.0000 N   0  0  0  0  0  0  0  0  0  0  0  0
  -11.1996   -5.9703    0.0000 C   0  0  0  0  0  0  0  0  0  0  0  0
   -9.7730   -5.5068    0.0000 C   0  0  0  0  0  0  0  0  0  0  0  0
   -8.6583   -6.5105    0.0000 N   0  0  0  0  0  0  0  0  0  0  0  0
   -7.2317   -6.0469    0.0000 C   0  0  0  0  0  0  0  0  0  0  0  0
   -6.1170   -7.0506    0.0000 C   0  0  0  0  0  0  0  0  0  0  0  0
   -4.6904   -6.5871    0.0000 C   0  0  0  0  0  0  0  0  0  0  0  0
   -4.3786   -5.1199    0.0000 C   0  0  0  0  0  0  0  0  0  0  0  0
   -2.9520   -4.6564    0.0000 C   0  0  0  0  0  0  0  0  0  0  0  0
   -1.8373   -5.6601    0.0000 O   0  0  0  0  0  0  0  0  0  0  0  0
   -2.6401   -3.1891    0.0000 N   0  0  0  0  0  0  0  0  0  0  0  0
   -1.2135   -2.7256    0.0000 C   0  0  0  0  0  0  0  0  0  0  0  0
   -0.0000   -3.6073    0.0000 N   0  0  0  0  0  0  0  0  0  0  0  0
    1.2135   -2.7256    0.0000 N   0  0  0  0  0  0  0  0  0  0  0  0
    0.7500   -1.2990    0.0000 C   0  0  0  0  0  0  0  0  0  0  0  0
    1.5000    0.0000    0.0000 C   0  0  0  0  0  0  0  0  0  0  0  0
    0.7500    1.2990    0.0000 C   0  0  0  0  0  0  0  0  0  0  0  0
   -0.7500    1.2990    0.0000 C   0  0  0  0  0  0  0  0  0  0  0  0
   -1.5000    2.5981    0.0000 C   0  0  0  0  0  0  0  0  0  0  0  0
   -0.7500    3.8971    0.0000 C   0  0  0  0  0  0  0  0  0  0  0  0
    0.7500    3.8971    0.0000 C   0  0  0  0  0  0  0  0  0  0  0  0
    1.5000    5.1962    0.0000 C   0  0  0  0  0  0  0  0  0  0  0  0
    3.0000    5.1962    0.0000 F   0  0  0  0  0  0  0  0  0  0  0  0
    0.7500    6.4952    0.0000 C   0  0  0  0  0  0  0  0  0  0  0  0
   -0.7500    6.4952    0.0000 C   0  0  0  0  0  0  0  0  0  0  0  0
   -1.5000    7.7942    0.0000 F   0  0  0  0  0  0  0  0  0  0  0  0
   -1.5000    5.1962    0.0000 C   0  0  0  0  0  0  0  0  0  0  0  0
   -1.5000    0.0000    0.0000 C   0  0  0  0  0  0  0  0  0  0  0  0
   -0.7500   -1.2990    0.0000 C   0  0  0  0  0  0  0  0  0  0  0  0
   -5.4933   -4.1162    0.0000 C   0  0  0  0  0  0  0  0  0  0  0  0
   -5.1814   -2.6490    0.0000 N   0  0  0  0  0  0  0  0  0  0  0  0
   -6.2961   -1.6453    0.0000 C   0  0  0  0  0  0  0  0  0  0  0  0
   -5.9843   -0.1781    0.0000 C   0  0  0  0  0  0  0  0  0  0  0  0
   -7.0990    0.8256    0.0000 C   0  0  0  0  0  0  0  0  0  0  0  0
   -8.5256    0.3621    0.0000 C   0  0  0  0  0  0  0  0  0  0  0  0
   -9.6403    1.3658    0.0000 O   0  0  0  0  0  0  0  0  0  0  0  0
   -8.8374   -1.1051    0.0000 C   0  0  0  0  0  0  0  0  0  0  0  0
   -7.7227   -2.1088    0.0000 C   0  0  0  0  0  0  0  0  0  0  0  0
   -6.9199   -4.5797    0.0000 C   0  0  0  0  0  0  0  0  0  0  0  0
   -8.9702   -7.9777    0.0000 C   0  0  0  0  0  0  0  0  0  0  0  0
  -10.3968   -8.4412    0.0000 C   0  0  0  0  0  0  0  0  0  0  0  0
  1  2  1  0
  2  3  1  0
  3  4  1  0
  4  5  1  0
  5  6  1  0
  6  7  2  0
  7  8  1  0
  8  9  2  0
  9 10  1  0
 10 11  2  0
 10 12  1  0
 12 13  1  0
 13 14  2  0
 14 15  1  0
 15 16  1  0
 16 17  2  0
 17 18  1  0
 18 19  2  0
 19 20  1  0
 20 21  1  0
 21 22  2  0
 22 23  1  0
 23 24  1  0
 23 25  2  0
 25 26  1  0
 26 27  1  0
 26 28  2  0
 19 29  1  0
 29 30  2  0
  9 31  1  0
 31 32  1  0
 33 32  1  6
 33 34  1  0
 34 35  1  0
 35 36  1  0
 36 37  1  1
 36 38  1  0
 38 39  1  0
 31 40  2  0
  5 41  1  0
 41 42  1  0
 42  2  1  0
 40  6  1  0
 30 13  1  0
 39 33  1  0
 30 16  1  0
 28 21  1  0
M  END
>  <Compound_ID>  (403) 
CHEMBL3805123

>  <Molecule Name>  (403) 
nan

>  <Molecular Weight>  (403) 
574.68

>  <AlogP>  (403) 
5.15

>  <Smiles>  (403) 
CN1CCN(c2ccc(C(=O)Nc3n[nH]c4ccc(Cc5cc(F)cc(F)c5)cc34)c(N[C@H]3CC[C@H](O)CC3)c2)CC1

>  <Standard Type>  (403) 
IC50

>  <Standard Relation>  (403) 
'='

>  <Standard Units>  (403) 
nM

>  <Standard Value>  (403) 
10.0

>  <Assay ChEMBL ID>  (403) 
CHEMBL3806916

>  <Assay Description>  (403) 
Inhibition of recombinant ALK (unknown origin) in presence of gamma33-ATP

>  <BAO Format ID>  (403) 
BAO_0000357

>  <BAO Label>  (403) 
single protein format

>  <Assay Organism>  (403) 
Homo sapiens

>  <Target ChEMBL ID>  (403) 
CHEMBL4247

>  <Target Name>  (403) 
ALK tyrosine kinase receptor

>  <Target Organism>  (403) 
Homo sapiens

>  <Target Type>  (403) 
SINGLE PROTEIN

>  <Document ChEMBL ID>  (403) 
CHEMBL3804811

>  <Source Description>  (403) 
Scientific Literature

>  <Document Journal>  (403) 
J Med Chem

>  <Document Year>  (403) 
2016.0

>  <Active>  (403) 
1.0

>  <bits>  (403) 
<rdkit.DataStructs.cDataStructs.ExplicitBitVect object at 0x000002422F2307B0>

>  <Group>  (403) 
G2

$$$$

     RDKit          2D

 39 43  0  0  0  0  0  0  0  0999 V2000
   -4.5577    0.2855    0.0000 C   0  0  0  0  0  0  0  0  0  0  0  0
   -3.4430   -0.7182    0.0000 O   0  0  0  0  0  0  0  0  0  0  0  0
   -3.7548   -2.1855    0.0000 C   0  0  0  0  0  0  0  0  0  0  0  0
   -5.1814   -2.6490    0.0000 N   0  0  0  0  0  0  0  0  0  0  0  0
   -5.4933   -4.1162    0.0000 C   0  0  0  0  0  0  0  0  0  0  0  0
   -4.3786   -5.1199    0.0000 C   0  0  0  0  0  0  0  0  0  0  0  0
   -2.9520   -4.6564    0.0000 C   0  0  0  0  0  0  0  0  0  0  0  0
   -2.6401   -3.1891    0.0000 C   0  0  0  0  0  0  0  0  0  0  0  0
   -1.2135   -2.7256    0.0000 C   0  0  0  0  0  0  0  0  0  0  0  0
   -0.0000   -3.6073    0.0000 C   0  0  0  0  0  0  0  0  0  0  0  0
    0.0000   -5.1073    0.0000 C   0  0  0  0  0  0  0  0  0  0  0  0
    1.2990   -5.8573    0.0000 N   0  0  0  0  0  0  0  0  0  0  0  0
   -1.2990   -5.8573    0.0000 O   0  0  0  0  0  0  0  0  0  0  0  0
    1.2135   -2.7256    0.0000 S   0  0  0  0  0  0  0  0  0  0  0  0
    0.7500   -1.2990    0.0000 C   0  0  0  0  0  0  0  0  0  0  0  0
    1.5000    0.0000    0.0000 C   0  0  0  0  0  0  0  0  0  0  0  0
    0.7500    1.2990    0.0000 N   0  0  0  0  0  0  0  0  0  0  0  0
   -0.7500    1.2990    0.0000 C   0  0  0  0  0  0  0  0  0  0  0  0
   -1.5000    2.5981    0.0000 N   0  0  0  0  0  0  0  0  0  0  0  0
   -0.7500    3.8971    0.0000 C   0  0  0  0  0  0  0  0  0  0  0  0
    0.7500    3.8971    0.0000 C   0  0  0  0  0  0  0  0  0  0  0  0
    1.5000    5.1962    0.0000 C   0  0  0  0  0  0  0  0  0  0  0  0
    3.0000    5.1962    0.0000 C   0  0  0  0  0  0  0  0  0  0  0  0
    0.7500    6.4952    0.0000 C   0  0  0  0  0  0  0  0  0  0  0  0
    1.5000    7.7942    0.0000 N   0  0  0  0  0  0  0  0  0  0  0  0
    3.0000    7.7942    0.0000 C   0  0  0  0  0  0  0  0  0  0  0  0
    3.7500    9.0933    0.0000 C   0  0  0  0  0  0  0  0  0  0  0  0
    3.0000   10.3923    0.0000 N   0  0  0  0  0  0  0  0  0  0  0  0
    3.7500   11.6913    0.0000 C   0  0  0  0  0  0  0  0  0  0  0  0
    1.5000   10.3923    0.0000 C   0  0  0  0  0  0  0  0  0  0  0  0
    0.7500    9.0933    0.0000 C   0  0  0  0  0  0  0  0  0  0  0  0
   -0.7500    6.4952    0.0000 C   0  0  0  0  0  0  0  0  0  0  0  0
   -1.5000    5.1962    0.0000 C   0  0  0  0  0  0  0  0  0  0  0  0
   -3.0000    5.1962    0.0000 O   0  0  0  0  0  0  0  0  0  0  0  0
   -3.7500    6.4952    0.0000 C   0  0  0  0  0  0  0  0  0  0  0  0
   -5.2500    6.4952    0.0000 C   0  0  0  0  0  0  0  0  0  0  0  0
   -3.0000    7.7942    0.0000 C   0  0  0  0  0  0  0  0  0  0  0  0
   -1.5000    0.0000    0.0000 N   0  0  0  0  0  0  0  0  0  0  0  0
   -0.7500   -1.2990    0.0000 C   0  0  0  0  0  0  0  0  0  0  0  0
  1  2  1  0
  2  3  1  0
  3  4  2  0
  4  5  1  0
  5  6  2  0
  6  7  1  0
  7  8  2  0
  8  9  1  0
  9 10  2  0
 10 11  1  0
 11 12  1  0
 11 13  2  0
 10 14  1  0
 14 15  1  0
 15 16  2  0
 16 17  1  0
 17 18  2  0
 18 19  1  0
 19 20  1  0
 20 21  2  0
 21 22  1  0
 22 23  1  0
 22 24  2  0
 24 25  1  0
 25 26  1  0
 26 27  1  0
 27 28  1  0
 28 29  1  0
 28 30  1  0
 30 31  1  0
 24 32  1  0
 32 33  2  0
 33 34  1  0
 34 35  1  0
 35 36  1  0
 35 37  1  0
 18 38  1  0
 38 39  2  0
  8  3  1  0
 39  9  1  0
 39 15  1  0
 33 20  1  0
 31 25  1  0
M  END
>  <Compound_ID>  (404) 
CHEMBL3669139

>  <Molecule Name>  (404) 
nan

>  <Molecular Weight>  (404) 
547.69

>  <AlogP>  (404) 
4.45

>  <Smiles>  (404) 
COc1ncccc1-c1c(C(N)=O)sc2cnc(Nc3cc(C)c(N4CCN(C)CC4)cc3OC(C)C)nc12

>  <Standard Type>  (404) 
IC50

>  <Standard Relation>  (404) 
'='

>  <Standard Units>  (404) 
nM

>  <Standard Value>  (404) 
3.0

>  <Assay ChEMBL ID>  (404) 
CHEMBL3705810

>  <Assay Description>  (404) 
In Vitro Inhibition Assay: The reagents used have the following composition: Enzyme buffer (EB): 50 mM HEPES (pH: 7.0) (Sigma H7523), 100 mM NaCl (Sigma S7653), NaN.sub.3 at 0.01% (Sigma S8032), BSA at 0.005% (Sigma A2153), 0.05 mM sodium orthovanadate (Calbiochem 567540). Detection buffer (DB): 50 mM HEPES (pH: 7.0), BSA at 0.1%, 0.8 M KF (Fluka 60239), 20 mM EDTA (Sigma E5134).The peptide used is the one described in Biochemistry, 2005, 44, 8533-8542; A-21-K(biotin)NH.sub.2, obtained from NeoMPS (reference SP081233). All the HTRF reagents Mab PT66-K (61T66KLB) and streptavidin-XL665 (610SAXLB), and the SEB reagent, are purchased from Cisbio.The test is carried out in a 384-well plate (Greiner 784076). The serial dilutions are carried out in pure DMSO, and then an intermediate one-in-three dilution in water is carried out, with 1 microliter of each concentration being distributed, all these operations being performed using the Zephyr apparatus (Caliper Life Sciences).

>  <BAO Format ID>  (404) 
BAO_0000357

>  <BAO Label>  (404) 
single protein format

>  <Assay Organism>  (404) 
Homo sapiens

>  <Target ChEMBL ID>  (404) 
CHEMBL4247

>  <Target Name>  (404) 
ALK tyrosine kinase receptor

>  <Target Organism>  (404) 
Homo sapiens

>  <Target Type>  (404) 
SINGLE PROTEIN

>  <Document ChEMBL ID>  (404) 
CHEMBL3639289

>  <Source Description>  (404) 
BindingDB Database

>  <Document Journal>  (404) 
nan

>  <Document Year>  (404) 
2015.0

>  <Active>  (404) 
1.0

>  <bits>  (404) 
<rdkit.DataStructs.cDataStructs.ExplicitBitVect object at 0x000002422F2300B0>

>  <Group>  (404) 
G2

$$$$

     RDKit          2D

 37 40  0  0  0  0  0  0  0  0999 V2000
   -3.7500    3.8971    0.0000 C   0  0  0  0  0  0  0  0  0  0  0  0
   -2.2500    3.8971    0.0000 C   0  0  0  0  0  0  0  0  0  0  0  0
   -1.5000    5.1962    0.0000 C   0  0  0  0  0  0  0  0  0  0  0  0
   -1.5000    2.5981    0.0000 S   0  0  0  0  0  0  0  0  0  0  0  0
   -0.2010    3.3481    0.0000 O   0  0  0  0  0  0  0  0  0  0  0  0
   -2.7990    1.8481    0.0000 O   0  0  0  0  0  0  0  0  0  0  0  0
   -0.7500    1.2990    0.0000 C   0  0  0  0  0  0  0  0  0  0  0  0
   -1.5000   -0.0000    0.0000 C   0  0  0  0  0  0  0  0  0  0  0  0
   -0.7500   -1.2990    0.0000 C   0  0  0  0  0  0  0  0  0  0  0  0
    0.7500   -1.2990    0.0000 C   0  0  0  0  0  0  0  0  0  0  0  0
    1.5000   -0.0000    0.0000 C   0  0  0  0  0  0  0  0  0  0  0  0
    0.7500    1.2990    0.0000 C   0  0  0  0  0  0  0  0  0  0  0  0
    1.5000    2.5981    0.0000 N   0  0  0  0  0  0  0  0  0  0  0  0
    3.0000    2.5981    0.0000 C   0  0  0  0  0  0  0  0  0  0  0  0
    3.7500    1.2990    0.0000 N   0  0  0  0  0  0  0  0  0  0  0  0
    5.2500    1.2990    0.0000 C   0  0  0  0  0  0  0  0  0  0  0  0
    6.0000   -0.0000    0.0000 N   0  0  0  0  0  0  0  0  0  0  0  0
    7.5000   -0.0000    0.0000 C   0  0  0  0  0  0  0  0  0  0  0  0
    8.2500   -1.2990    0.0000 C   0  0  0  0  0  0  0  0  0  0  0  0
    9.7500   -1.2990    0.0000 C   0  0  0  0  0  0  0  0  0  0  0  0
   10.5000   -0.0000    0.0000 C   0  0  0  0  0  0  0  0  0  0  0  0
    9.7500    1.2990    0.0000 C   0  0  0  0  0  0  0  0  0  0  0  0
   10.5000    2.5981    0.0000 N   0  0  0  0  0  0  0  0  0  0  0  0
   12.0000    2.5981    0.0000 C   0  0  0  0  0  0  0  0  0  0  0  0
   12.7500    1.2990    0.0000 O   0  0  0  0  0  0  0  0  0  0  0  0
   12.7500    3.8971    0.0000 C   0  0  0  0  0  0  0  0  0  0  0  0
   14.2500    3.8971    0.0000 N   0  0  0  0  0  0  0  0  0  0  0  0
   15.0000    2.5981    0.0000 C   0  0  0  0  0  0  0  0  0  0  0  0
   16.5000    2.5981    0.0000 C   0  0  0  0  0  0  0  0  0  0  0  0
   17.2500    3.8971    0.0000 O   0  0  0  0  0  0  0  0  0  0  0  0
   16.5000    5.1962    0.0000 C   0  0  0  0  0  0  0  0  0  0  0  0
   15.0000    5.1962    0.0000 C   0  0  0  0  0  0  0  0  0  0  0  0
    8.2500    1.2990    0.0000 C   0  0  0  0  0  0  0  0  0  0  0  0
    6.0000    2.5981    0.0000 N   0  0  0  0  0  0  0  0  0  0  0  0
    5.2500    3.8971    0.0000 C   0  0  0  0  0  0  0  0  0  0  0  0
    3.7500    3.8971    0.0000 C   0  0  0  0  0  0  0  0  0  0  0  0
    3.0000    5.1962    0.0000 Cl  0  0  0  0  0  0  0  0  0  0  0  0
  1  2  1  0
  2  3  1  0
  2  4  1  0
  4  5  2  0
  4  6  2  0
  4  7  1  0
  7  8  2  0
  8  9  1  0
  9 10  2  0
 10 11  1  0
 11 12  2  0
 12 13  1  0
 13 14  1  0
 14 15  2  0
 15 16  1  0
 16 17  1  0
 17 18  1  0
 18 19  2  0
 19 20  1  0
 20 21  2  0
 21 22  1  0
 22 23  1  0
 23 24  1  0
 24 25  2  0
 24 26  1  0
 26 27  1  0
 27 28  1  0
 28 29  1  0
 29 30  1  0
 30 31  1  0
 31 32  1  0
 22 33  2  0
 16 34  2  0
 34 35  1  0
 35 36  2  0
 36 37  1  0
 12  7  1  0
 36 14  1  0
 33 18  1  0
 32 27  1  0
M  END
>  <Compound_ID>  (405) 
CHEMBL3357453

>  <Molecule Name>  (405) 
nan

>  <Molecular Weight>  (405) 
545.07

>  <AlogP>  (405) 
4.07

>  <Smiles>  (405) 
CC(C)S(=O)(=O)c1ccccc1Nc1nc(Nc2cccc(NC(=O)CN3CCOCC3)c2)ncc1Cl

>  <Standard Type>  (405) 
IC50

>  <Standard Relation>  (405) 
'='

>  <Standard Units>  (405) 
nM

>  <Standard Value>  (405) 
17.8

>  <Assay ChEMBL ID>  (405) 
CHEMBL3364272

>  <Assay Description>  (405) 
Inhibition of ALK (unknown origin) after 60 mins by ELISA

>  <BAO Format ID>  (405) 
BAO_0000357

>  <BAO Label>  (405) 
single protein format

>  <Assay Organism>  (405) 
Homo sapiens

>  <Target ChEMBL ID>  (405) 
CHEMBL4247

>  <Target Name>  (405) 
ALK tyrosine kinase receptor

>  <Target Organism>  (405) 
Homo sapiens

>  <Target Type>  (405) 
SINGLE PROTEIN

>  <Document ChEMBL ID>  (405) 
CHEMBL3351234

>  <Source Description>  (405) 
Scientific Literature

>  <Document Journal>  (405) 
J Med Chem

>  <Document Year>  (405) 
2015.0

>  <Active>  (405) 
1.0

>  <bits>  (405) 
<rdkit.DataStructs.cDataStructs.ExplicitBitVect object at 0x000002422F233BC0>

>  <Group>  (405) 
G2

$$$$

     RDKit          2D

 41 44  0  0  0  0  0  0  0  0999 V2000
   -3.7500    3.8971    0.0000 C   0  0  0  0  0  0  0  0  0  0  0  0
   -2.2500    3.8971    0.0000 C   0  0  0  0  0  0  0  0  0  0  0  0
   -1.5000    5.1962    0.0000 C   0  0  0  0  0  0  0  0  0  0  0  0
   -1.5000    2.5981    0.0000 S   0  0  0  0  0  0  0  0  0  0  0  0
   -0.2010    3.3481    0.0000 O   0  0  0  0  0  0  0  0  0  0  0  0
   -2.7990    1.8481    0.0000 O   0  0  0  0  0  0  0  0  0  0  0  0
   -0.7500    1.2990    0.0000 C   0  0  0  0  0  0  0  0  0  0  0  0
   -1.5000   -0.0000    0.0000 C   0  0  0  0  0  0  0  0  0  0  0  0
   -0.7500   -1.2990    0.0000 C   0  0  0  0  0  0  0  0  0  0  0  0
    0.7500   -1.2990    0.0000 C   0  0  0  0  0  0  0  0  0  0  0  0
    1.5000   -0.0000    0.0000 C   0  0  0  0  0  0  0  0  0  0  0  0
    0.7500    1.2990    0.0000 C   0  0  0  0  0  0  0  0  0  0  0  0
    1.5000    2.5981    0.0000 N   0  0  0  0  0  0  0  0  0  0  0  0
    3.0000    2.5981    0.0000 C   0  0  0  0  0  0  0  0  0  0  0  0
    3.7500    1.2990    0.0000 N   0  0  0  0  0  0  0  0  0  0  0  0
    5.2500    1.2990    0.0000 C   0  0  0  0  0  0  0  0  0  0  0  0
    6.0000   -0.0000    0.0000 N   0  0  0  0  0  0  0  0  0  0  0  0
    7.5000   -0.0000    0.0000 C   0  0  0  0  0  0  0  0  0  0  0  0
    8.2500   -1.2990    0.0000 C   0  0  0  0  0  0  0  0  0  0  0  0
    9.7500   -1.2990    0.0000 C   0  0  0  0  0  0  0  0  0  0  0  0
   10.5000   -0.0000    0.0000 C   0  0  0  0  0  0  0  0  0  0  0  0
    9.7500    1.2990    0.0000 C   0  0  0  0  0  0  0  0  0  0  0  0
   10.5000    2.5981    0.0000 N   0  0  0  0  0  0  0  0  0  0  0  0
   12.0000    2.5981    0.0000 C   0  0  0  0  0  0  0  0  0  0  0  0
   12.7500    1.2990    0.0000 O   0  0  0  0  0  0  0  0  0  0  0  0
   12.7500    3.8971    0.0000 C   0  0  0  0  0  0  0  0  0  0  0  0
   14.2500    3.8971    0.0000 N   0  0  0  0  0  0  0  0  0  0  0  0
   15.0000    2.5981    0.0000 C   0  0  0  0  0  0  0  0  0  0  0  0
   16.5000    2.5981    0.0000 C   0  0  0  0  0  0  0  0  0  0  0  0
   17.2500    3.8971    0.0000 N   0  0  0  0  0  0  0  0  0  0  0  0
   18.7500    3.8971    0.0000 C   0  0  0  0  0  0  0  0  0  0  0  0
   19.5000    5.1962    0.0000 O   0  0  0  0  0  0  0  0  0  0  0  0
   19.5000    2.5981    0.0000 C   0  0  0  0  0  0  0  0  0  0  0  0
   21.0000    2.5981    0.0000 O   0  0  0  0  0  0  0  0  0  0  0  0
   16.5000    5.1962    0.0000 C   0  0  0  0  0  0  0  0  0  0  0  0
   15.0000    5.1962    0.0000 C   0  0  0  0  0  0  0  0  0  0  0  0
    8.2500    1.2990    0.0000 C   0  0  0  0  0  0  0  0  0  0  0  0
    6.0000    2.5981    0.0000 N   0  0  0  0  0  0  0  0  0  0  0  0
    5.2500    3.8971    0.0000 C   0  0  0  0  0  0  0  0  0  0  0  0
    3.7500    3.8971    0.0000 C   0  0  0  0  0  0  0  0  0  0  0  0
    3.0000    5.1962    0.0000 Cl  0  0  0  0  0  0  0  0  0  0  0  0
  1  2  1  0
  2  3  1  0
  2  4  1  0
  4  5  2  0
  4  6  2  0
  4  7  1  0
  7  8  2  0
  8  9  1  0
  9 10  2  0
 10 11  1  0
 11 12  2  0
 12 13  1  0
 13 14  1  0
 14 15  2  0
 15 16  1  0
 16 17  1  0
 17 18  1  0
 18 19  2  0
 19 20  1  0
 20 21  2  0
 21 22  1  0
 22 23  1  0
 23 24  1  0
 24 25  2  0
 24 26  1  0
 26 27  1  0
 27 28  1  0
 28 29  1  0
 29 30  1  0
 30 31  1  0
 31 32  2  0
 31 33  1  0
 33 34  1  0
 30 35  1  0
 35 36  1  0
 22 37  2  0
 16 38  2  0
 38 39  1  0
 39 40  2  0
 40 41  1  0
 12  7  1  0
 40 14  1  0
 37 18  1  0
 36 27  1  0
M  END
>  <Compound_ID>  (406) 
CHEMBL3357459

>  <Molecule Name>  (406) 
nan

>  <Molecular Weight>  (406) 
602.12

>  <AlogP>  (406) 
2.87

>  <Smiles>  (406) 
CC(C)S(=O)(=O)c1ccccc1Nc1nc(Nc2cccc(NC(=O)CN3CCN(C(=O)CO)CC3)c2)ncc1Cl

>  <Standard Type>  (406) 
IC50

>  <Standard Relation>  (406) 
'='

>  <Standard Units>  (406) 
nM

>  <Standard Value>  (406) 
9.0

>  <Assay ChEMBL ID>  (406) 
CHEMBL3364272

>  <Assay Description>  (406) 
Inhibition of ALK (unknown origin) after 60 mins by ELISA

>  <BAO Format ID>  (406) 
BAO_0000357

>  <BAO Label>  (406) 
single protein format

>  <Assay Organism>  (406) 
Homo sapiens

>  <Target ChEMBL ID>  (406) 
CHEMBL4247

>  <Target Name>  (406) 
ALK tyrosine kinase receptor

>  <Target Organism>  (406) 
Homo sapiens

>  <Target Type>  (406) 
SINGLE PROTEIN

>  <Document ChEMBL ID>  (406) 
CHEMBL3351234

>  <Source Description>  (406) 
Scientific Literature

>  <Document Journal>  (406) 
J Med Chem

>  <Document Year>  (406) 
2015.0

>  <Active>  (406) 
1.0

>  <bits>  (406) 
<rdkit.DataStructs.cDataStructs.ExplicitBitVect object at 0x000002422F232C70>

>  <Group>  (406) 
G2

$$$$

     RDKit          2D

 39 43  0  0  0  0  0  0  0  0999 V2000
    3.7500   -1.2990    0.0000 C   0  0  0  0  0  0  0  0  0  0  0  0
    3.0000    0.0000    0.0000 O   0  0  0  0  0  0  0  0  0  0  0  0
    1.5000    0.0000    0.0000 C   0  0  0  0  0  0  0  0  0  0  0  0
    0.7500   -1.2990    0.0000 C   0  0  0  0  0  0  0  0  0  0  0  0
   -0.7500   -1.2990    0.0000 C   0  0  0  0  0  0  0  0  0  0  0  0
   -1.5000   -2.5981    0.0000 N   0  0  0  0  0  0  0  0  0  0  0  0
   -3.0000   -2.5981    0.0000 C   0  0  0  0  0  0  0  0  0  0  0  0
   -3.7500   -3.8971    0.0000 C   0  0  0  0  0  0  0  0  0  0  0  0
   -3.0000   -5.1962    0.0000 C   0  0  0  0  0  0  0  0  0  0  0  0
   -3.7500   -6.4952    0.0000 N   0  0  0  0  0  0  0  0  0  0  0  0
   -5.2500   -6.4952    0.0000 C   0  0  0  0  0  0  0  0  0  0  0  0
   -6.0000   -7.7942    0.0000 C   0  0  0  0  0  0  0  0  0  0  0  0
   -5.2500   -9.0933    0.0000 N   0  0  0  0  0  0  0  0  0  0  0  0
   -6.0000  -10.3923    0.0000 C   0  0  0  0  0  0  0  0  0  0  0  0
   -3.7500   -9.0933    0.0000 C   0  0  0  0  0  0  0  0  0  0  0  0
   -3.0000   -7.7942    0.0000 C   0  0  0  0  0  0  0  0  0  0  0  0
   -1.5000   -5.1962    0.0000 C   0  0  0  0  0  0  0  0  0  0  0  0
   -0.7500   -3.8971    0.0000 C   0  0  0  0  0  0  0  0  0  0  0  0
   -1.5000    0.0000    0.0000 C   0  0  0  0  0  0  0  0  0  0  0  0
   -0.7500    1.2990    0.0000 C   0  0  0  0  0  0  0  0  0  0  0  0
    0.7500    1.2990    0.0000 C   0  0  0  0  0  0  0  0  0  0  0  0
    1.5000    2.5981    0.0000 N   0  0  0  0  0  0  0  0  0  0  0  0
    3.0000    2.5981    0.0000 C   0  0  0  0  0  0  0  0  0  0  0  0
    3.7500    1.2990    0.0000 N   0  0  0  0  0  0  0  0  0  0  0  0
    5.2500    1.2990    0.0000 C   0  0  0  0  0  0  0  0  0  0  0  0
    6.0000    2.5981    0.0000 C   0  0  0  0  0  0  0  0  0  0  0  0
    7.5000    2.5981    0.0000 Cl  0  0  0  0  0  0  0  0  0  0  0  0
    5.2500    3.8971    0.0000 C   0  0  0  0  0  0  0  0  0  0  0  0
    6.0000    5.1962    0.0000 N   0  0  0  0  0  0  0  0  0  0  0  0
    5.2500    6.4952    0.0000 C   0  0  0  0  0  0  0  0  0  0  0  0
    3.7500    6.4952    0.0000 C   0  0  0  0  0  0  0  0  0  0  0  0
    3.0000    7.7942    0.0000 C   0  0  0  0  0  0  0  0  0  0  0  0
    3.7500    9.0933    0.0000 C   0  0  0  0  0  0  0  0  0  0  0  0
    5.2500    9.0933    0.0000 C   0  0  0  0  0  0  0  0  0  0  0  0
    6.0000    7.7942    0.0000 C   0  0  0  0  0  0  0  0  0  0  0  0
    7.5000    7.7942    0.0000 C   0  0  0  0  0  0  0  0  0  0  0  0
    8.2500    9.0933    0.0000 C   0  0  0  0  0  0  0  0  0  0  0  0
    8.2500    6.4952    0.0000 O   0  0  0  0  0  0  0  0  0  0  0  0
    3.7500    3.8971    0.0000 N   0  0  0  0  0  0  0  0  0  0  0  0
  1  2  1  0
  2  3  1  0
  3  4  2  0
  4  5  1  0
  5  6  1  0
  6  7  1  0
  7  8  1  0
  8  9  1  0
  9 10  1  0
 10 11  1  0
 11 12  1  0
 12 13  1  0
 13 14  1  0
 13 15  1  0
 15 16  1  0
  9 17  1  0
 17 18  1  0
  5 19  2  0
 19 20  1  0
 20 21  2  0
 21 22  1  0
 22 23  1  0
 23 24  2  0
 24 25  1  0
 25 26  2  0
 26 27  1  0
 26 28  1  0
 28 29  1  0
 29 30  1  0
 30 31  2  0
 31 32  1  0
 32 33  2  0
 33 34  1  0
 34 35  2  0
 35 36  1  0
 36 37  1  0
 36 38  1  0
 28 39  2  0
 21  3  1  0
 39 23  1  0
 18  6  1  0
 35 30  1  0
 16 10  1  0
M  END
>  <Compound_ID>  (407) 
CHEMBL3822499

>  <Molecule Name>  (407) 
nan

>  <Molecular Weight>  (407) 
552.12

>  <AlogP>  (407) 
4.90

>  <Smiles>  (407) 
COc1cc(N2CCC(N3CCN(C)CC3)CC2)ccc1Nc1ncc(Cl)c(Nc2ccccc2C(C)O)n1

>  <Standard Type>  (407) 
IC50

>  <Standard Relation>  (407) 
'='

>  <Standard Units>  (407) 
nM

>  <Standard Value>  (407) 
0.99

>  <Assay ChEMBL ID>  (407) 
CHEMBL3824709

>  <Assay Description>  (407) 
Inhibition of human ALK using poly[Glu:Tyr] (4:1) as substrate and [gamma-33P]ATP measured after 1 hr

>  <BAO Format ID>  (407) 
BAO_0000357

>  <BAO Label>  (407) 
single protein format

>  <Assay Organism>  (407) 
Homo sapiens

>  <Target ChEMBL ID>  (407) 
CHEMBL4247

>  <Target Name>  (407) 
ALK tyrosine kinase receptor

>  <Target Organism>  (407) 
Homo sapiens

>  <Target Type>  (407) 
SINGLE PROTEIN

>  <Document ChEMBL ID>  (407) 
CHEMBL3822358

>  <Source Description>  (407) 
Scientific Literature

>  <Document Journal>  (407) 
J Med Chem

>  <Document Year>  (407) 
2016.0

>  <Active>  (407) 
1.0

>  <bits>  (407) 
<rdkit.DataStructs.cDataStructs.ExplicitBitVect object at 0x000002422F232B20>

>  <Group>  (407) 
G2

$$$$

     RDKit          2D

 42 45  0  0  0  0  0  0  0  0999 V2000
    3.7500   -1.2990    0.0000 C   0  0  0  0  0  0  0  0  0  0  0  0
    3.0000    0.0000    0.0000 O   0  0  0  0  0  0  0  0  0  0  0  0
    1.5000    0.0000    0.0000 C   0  0  0  0  0  0  0  0  0  0  0  0
    0.7500   -1.2990    0.0000 C   0  0  0  0  0  0  0  0  0  0  0  0
   -0.7500   -1.2990    0.0000 C   0  0  0  0  0  0  0  0  0  0  0  0
   -1.5000    0.0000    0.0000 C   0  0  0  0  0  0  0  0  0  0  0  0
   -0.7500    1.2990    0.0000 C   0  0  0  0  0  0  0  0  0  0  0  0
    0.7500    1.2990    0.0000 C   0  0  0  0  0  0  0  0  0  0  0  0
    1.5000    2.5981    0.0000 N   0  0  0  0  0  0  0  0  0  0  0  0
    3.0000    2.5981    0.0000 C   0  0  0  0  0  0  0  0  0  0  0  0
    3.7500    1.2990    0.0000 N   0  0  0  0  0  0  0  0  0  0  0  0
    5.2500    1.2990    0.0000 C   0  0  0  0  0  0  0  0  0  0  0  0
    6.0000    2.5981    0.0000 C   0  0  0  0  0  0  0  0  0  0  0  0
    7.5000    2.5981    0.0000 Cl  0  0  0  0  0  0  0  0  0  0  0  0
    5.2500    3.8971    0.0000 C   0  0  0  0  0  0  0  0  0  0  0  0
    6.0000    5.1962    0.0000 N   0  0  0  0  0  0  0  0  0  0  0  0
    5.2500    6.4952    0.0000 C   0  0  0  0  0  0  0  0  0  0  0  0
    3.7500    6.4952    0.0000 C   0  0  0  0  0  0  0  0  0  0  0  0
    3.0000    7.7942    0.0000 C   0  0  0  0  0  0  0  0  0  0  0  0
    3.7500    9.0933    0.0000 C   0  0  0  0  0  0  0  0  0  0  0  0
    5.2500    9.0933    0.0000 C   0  0  0  0  0  0  0  0  0  0  0  0
    6.0000    7.7942    0.0000 C   0  0  0  0  0  0  0  0  0  0  0  0
    7.5000    7.7942    0.0000 S   0  0  0  0  0  0  0  0  0  0  0  0
    7.5000    6.2942    0.0000 O   0  0  0  0  0  0  0  0  0  0  0  0
    7.5000    9.2942    0.0000 O   0  0  0  0  0  0  0  0  0  0  0  0
    9.0000    7.7942    0.0000 C   0  0  0  0  0  0  0  0  0  0  0  0
    9.7500    9.0933    0.0000 C   0  0  0  0  0  0  0  0  0  0  0  0
    9.7500    6.4952    0.0000 C   0  0  0  0  0  0  0  0  0  0  0  0
    3.7500    3.8971    0.0000 N   0  0  0  0  0  0  0  0  0  0  0  0
   -3.0000    0.0000    0.0000 C   0  0  0  0  0  0  0  0  0  0  0  0
   -3.7500   -1.2990    0.0000 C   0  0  0  0  0  0  0  0  0  0  0  0
   -3.0000   -2.5981    0.0000 C   0  0  0  0  0  0  0  0  0  0  0  0
   -3.7500   -3.8971    0.0000 N   0  0  0  0  0  0  0  0  0  0  0  0
   -5.2500   -3.8971    0.0000 C   0  0  0  0  0  0  0  0  0  0  0  0
   -6.0000   -2.5981    0.0000 O   0  0  0  0  0  0  0  0  0  0  0  0
   -6.0000   -5.1962    0.0000 C   0  0  0  0  0  0  0  0  0  0  0  0
   -7.5000   -5.1962    0.0000 N   0  0  0  0  0  0  0  0  0  0  0  0
   -8.2500   -6.4952    0.0000 C   0  0  0  0  0  0  0  0  0  0  0  0
   -8.2500   -3.8971    0.0000 C   0  0  0  0  0  0  0  0  0  0  0  0
   -1.5000   -2.5981    0.0000 C   0  0  0  0  0  0  0  0  0  0  0  0
   -0.0905   -3.1111    0.0000 C   0  0  0  0  0  0  0  0  0  0  0  0
   -1.7605   -4.0753    0.0000 C   0  0  0  0  0  0  0  0  0  0  0  0
  1  2  1  0
  2  3  1  0
  3  4  2  0
  4  5  1  0
  5  6  2  0
  6  7  1  0
  7  8  2  0
  8  9  1  0
  9 10  1  0
 10 11  2  0
 11 12  1  0
 12 13  2  0
 13 14  1  0
 13 15  1  0
 15 16  1  0
 16 17  1  0
 17 18  2  0
 18 19  1  0
 19 20  2  0
 20 21  1  0
 21 22  2  0
 22 23  1  0
 23 24  2  0
 23 25  2  0
 23 26  1  0
 26 27  1  0
 26 28  1  0
 15 29  2  0
  6 30  1  0
 30 31  1  0
 31 32  1  0
 32 33  1  0
 33 34  1  0
 34 35  2  0
 34 36  1  0
 36 37  1  0
 37 38  1  0
 37 39  1  0
 32 40  1  0
 40 41  1  0
 40 42  1  0
  8  3  1  0
 29 10  1  0
 40  5  1  0
 22 17  1  0
M  END
>  <Compound_ID>  (408) 
CHEMBL3785299

>  <Molecule Name>  (408) 
nan

>  <Molecular Weight>  (408) 
615.2

>  <AlogP>  (408) 
5.08

>  <Smiles>  (408) 
COc1cc2c(cc1Nc1ncc(Cl)c(Nc3ccccc3S(=O)(=O)C(C)C)n1)CCC(NC(=O)CN(C)C)C2(C)C

>  <Standard Type>  (408) 
IC50

>  <Standard Relation>  (408) 
'='

>  <Standard Units>  (408) 
nM

>  <Standard Value>  (408) 
4.2

>  <Assay ChEMBL ID>  (408) 
CHEMBL3791603

>  <Assay Description>  (408) 
Inhibition of wild type ALK (unknown origin) after 30 mins by HTRF assay

>  <BAO Format ID>  (408) 
BAO_0000357

>  <BAO Label>  (408) 
single protein format

>  <Assay Organism>  (408) 
Homo sapiens

>  <Target ChEMBL ID>  (408) 
CHEMBL4247

>  <Target Name>  (408) 
ALK tyrosine kinase receptor

>  <Target Organism>  (408) 
Homo sapiens

>  <Target Type>  (408) 
SINGLE PROTEIN

>  <Document ChEMBL ID>  (408) 
CHEMBL3784918

>  <Source Description>  (408) 
Scientific Literature

>  <Document Journal>  (408) 
Bioorg Med Chem Lett

>  <Document Year>  (408) 
2016.0

>  <Active>  (408) 
1.0

>  <bits>  (408) 
<rdkit.DataStructs.cDataStructs.ExplicitBitVect object at 0x000002422F232810>

>  <Group>  (408) 
G2

$$$$

     RDKit          2D

 36 39  0  0  0  0  0  0  0  0999 V2000
    3.7500   -1.2990    0.0000 C   0  0  0  0  0  0  0  0  0  0  0  0
    3.0000    0.0000    0.0000 O   0  0  0  0  0  0  0  0  0  0  0  0
    1.5000    0.0000    0.0000 C   0  0  0  0  0  0  0  0  0  0  0  0
    0.7500   -1.2990    0.0000 C   0  0  0  0  0  0  0  0  0  0  0  0
   -0.7500   -1.2990    0.0000 C   0  0  0  0  0  0  0  0  0  0  0  0
   -1.5000   -2.5981    0.0000 N   0  0  0  0  0  0  0  0  0  0  0  0
   -3.0000   -2.5981    0.0000 C   0  0  0  0  0  0  0  0  0  0  0  0
   -3.7500   -3.8971    0.0000 C   0  0  0  0  0  0  0  0  0  0  0  0
   -3.0000   -5.1962    0.0000 C   0  0  0  0  0  0  0  0  0  0  0  0
   -3.7500   -6.4952    0.0000 N   0  0  0  0  0  0  0  0  0  0  0  0
   -5.2500   -6.4952    0.0000 C   0  0  0  0  0  0  0  0  0  0  0  0
   -3.0000   -7.7942    0.0000 C   0  0  0  0  0  0  0  0  0  0  0  0
   -1.5000   -5.1962    0.0000 C   0  0  0  0  0  0  0  0  0  0  0  0
   -0.7500   -3.8971    0.0000 C   0  0  0  0  0  0  0  0  0  0  0  0
   -1.5000    0.0000    0.0000 C   0  0  0  0  0  0  0  0  0  0  0  0
   -0.7500    1.2990    0.0000 C   0  0  0  0  0  0  0  0  0  0  0  0
    0.7500    1.2990    0.0000 C   0  0  0  0  0  0  0  0  0  0  0  0
    1.5000    2.5981    0.0000 N   0  0  0  0  0  0  0  0  0  0  0  0
    3.0000    2.5981    0.0000 C   0  0  0  0  0  0  0  0  0  0  0  0
    3.7500    1.2990    0.0000 N   0  0  0  0  0  0  0  0  0  0  0  0
    5.2500    1.2990    0.0000 C   0  0  0  0  0  0  0  0  0  0  0  0
    6.0000    2.5981    0.0000 C   0  0  0  0  0  0  0  0  0  0  0  0
    7.5000    2.5981    0.0000 Cl  0  0  0  0  0  0  0  0  0  0  0  0
    5.2500    3.8971    0.0000 C   0  0  0  0  0  0  0  0  0  0  0  0
    6.0000    5.1962    0.0000 N   0  0  0  0  0  0  0  0  0  0  0  0
    5.2500    6.4952    0.0000 C   0  0  0  0  0  0  0  0  0  0  0  0
    3.7500    6.4952    0.0000 C   0  0  0  0  0  0  0  0  0  0  0  0
    3.0000    7.7942    0.0000 C   0  0  0  0  0  0  0  0  0  0  0  0
    3.7500    9.0933    0.0000 C   0  0  0  0  0  0  0  0  0  0  0  0
    5.2500    9.0933    0.0000 C   0  0  0  0  0  0  0  0  0  0  0  0
    6.0000    7.7942    0.0000 C   0  0  0  0  0  0  0  0  0  0  0  0
    7.5000    7.7942    0.0000 P   0  0  0  0  0  0  0  0  0  0  0  0
    7.5000    6.2942    0.0000 C   0  0  0  0  0  0  0  0  0  0  0  0
    7.5000    9.2942    0.0000 C   0  0  0  0  0  0  0  0  0  0  0  0
    9.0000    7.7942    0.0000 O   0  0  0  0  0  0  0  0  0  0  0  0
    3.7500    3.8971    0.0000 N   0  0  0  0  0  0  0  0  0  0  0  0
  1  2  1  0
  2  3  1  0
  3  4  2  0
  4  5  1  0
  5  6  1  0
  6  7  1  0
  7  8  1  0
  8  9  1  0
  9 10  1  0
 10 11  1  0
 10 12  1  0
  9 13  1  0
 13 14  1  0
  5 15  2  0
 15 16  1  0
 16 17  2  0
 17 18  1  0
 18 19  1  0
 19 20  2  0
 20 21  1  0
 21 22  2  0
 22 23  1  0
 22 24  1  0
 24 25  1  0
 25 26  1  0
 26 27  2  0
 27 28  1  0
 28 29  2  0
 29 30  1  0
 30 31  2  0
 31 32  1  0
 32 33  1  0
 32 34  1  0
 32 35  2  0
 24 36  2  0
 17  3  1  0
 36 19  1  0
 14  6  1  0
 31 26  1  0
M  END
>  <Compound_ID>  (409) 
CHEMBL3397300

>  <Molecule Name>  (409) 
nan

>  <Molecular Weight>  (409) 
529.03

>  <AlogP>  (409) 
5.40

>  <Smiles>  (409) 
COc1cc(N2CCC(N(C)C)CC2)ccc1Nc1ncc(Cl)c(Nc2ccccc2P(C)(C)=O)n1

>  <Standard Type>  (409) 
IC50

>  <Standard Relation>  (409) 
'='

>  <Standard Units>  (409) 
nM

>  <Standard Value>  (409) 
0.07

>  <Assay ChEMBL ID>  (409) 
CHEMBL3824709

>  <Assay Description>  (409) 
Inhibition of human ALK using poly[Glu:Tyr] (4:1) as substrate and [gamma-33P]ATP measured after 1 hr

>  <BAO Format ID>  (409) 
BAO_0000357

>  <BAO Label>  (409) 
single protein format

>  <Assay Organism>  (409) 
Homo sapiens

>  <Target ChEMBL ID>  (409) 
CHEMBL4247

>  <Target Name>  (409) 
ALK tyrosine kinase receptor

>  <Target Organism>  (409) 
Homo sapiens

>  <Target Type>  (409) 
SINGLE PROTEIN

>  <Document ChEMBL ID>  (409) 
CHEMBL3822358

>  <Source Description>  (409) 
Scientific Literature

>  <Document Journal>  (409) 
J Med Chem

>  <Document Year>  (409) 
2016.0

>  <Active>  (409) 
1.0

>  <bits>  (409) 
<rdkit.DataStructs.cDataStructs.ExplicitBitVect object at 0x000002422F232730>

>  <Group>  (409) 
G2

$$$$

     RDKit          2D

 37 42  0  0  0  0  0  0  0  0999 V2000
  -10.8058   -6.9964    0.0000 C   0  0  0  0  0  0  0  0  0  0  0  0
   -9.4354   -6.3863    0.0000 C   0  0  0  0  0  0  0  0  0  0  0  0
   -8.2219   -7.2679    0.0000 C   0  0  0  0  0  0  0  0  0  0  0  0
   -6.8516   -6.6578    0.0000 C   0  0  0  0  0  0  0  0  0  0  0  0
   -5.6381   -7.5395    0.0000 C   0  0  0  0  0  0  0  0  0  0  0  0
   -4.2677   -6.9294    0.0000 C   0  0  0  0  0  0  0  0  0  0  0  0
   -4.1110   -5.4376    0.0000 C   0  0  0  0  0  0  0  0  0  0  0  0
   -2.7406   -4.8275    0.0000 C   0  0  0  0  0  0  0  0  0  0  0  0
   -1.5271   -5.7092    0.0000 C   0  0  0  0  0  0  0  0  0  0  0  0
   -1.6839   -7.2010    0.0000 C   0  0  0  0  0  0  0  0  0  0  0  0
   -3.0542   -7.8111    0.0000 C   0  0  0  0  0  0  0  0  0  0  0  0
   -3.2110   -9.3029    0.0000 N   0  0  0  0  0  0  0  0  0  0  0  0
   -4.5813   -9.9130    0.0000 C   0  0  0  0  0  0  0  0  0  0  0  0
   -4.7381  -11.4047    0.0000 C   0  0  0  0  0  0  0  0  0  0  0  0
   -3.5246  -12.2864    0.0000 N   0  0  0  0  0  0  0  0  0  0  0  0
   -3.6814  -13.7782    0.0000 C   0  0  0  0  0  0  0  0  0  0  0  0
   -4.8471  -14.7222    0.0000 C   0  0  0  0  0  0  0  0  0  0  0  0
   -3.9031  -15.8879    0.0000 O   0  0  0  0  0  0  0  0  0  0  0  0
   -2.7374  -14.9439    0.0000 C   0  0  0  0  0  0  0  0  0  0  0  0
   -2.1543  -11.6763    0.0000 C   0  0  0  0  0  0  0  0  0  0  0  0
   -1.9975  -10.1845    0.0000 C   0  0  0  0  0  0  0  0  0  0  0  0
   -0.1568   -5.0991    0.0000 C   0  0  0  0  0  0  0  0  0  0  0  0
    1.3396   -4.9944    0.0000 C   0  0  0  0  0  0  0  0  0  0  0  0
    0.2061   -6.5545    0.0000 C   0  0  0  0  0  0  0  0  0  0  0  0
   -0.0000   -3.6073    0.0000 C   0  0  0  0  0  0  0  0  0  0  0  0
    1.2135   -2.7256    0.0000 N   0  0  0  0  0  0  0  0  0  0  0  0
    0.7500   -1.2990    0.0000 C   0  0  0  0  0  0  0  0  0  0  0  0
    1.5000    0.0000    0.0000 C   0  0  0  0  0  0  0  0  0  0  0  0
    0.7500    1.2990    0.0000 C   0  0  0  0  0  0  0  0  0  0  0  0
    1.5000    2.5981    0.0000 C   0  0  0  0  0  0  0  0  0  0  0  0
    2.2500    3.8971    0.0000 N   0  0  0  0  0  0  0  0  0  0  0  0
   -0.7500    1.2990    0.0000 C   0  0  0  0  0  0  0  0  0  0  0  0
   -1.5000    0.0000    0.0000 C   0  0  0  0  0  0  0  0  0  0  0  0
   -0.7500   -1.2990    0.0000 C   0  0  0  0  0  0  0  0  0  0  0  0
   -1.2135   -2.7256    0.0000 C   0  0  0  0  0  0  0  0  0  0  0  0
   -2.5838   -3.3357    0.0000 C   0  0  0  0  0  0  0  0  0  0  0  0
   -3.7974   -2.4540    0.0000 O   0  0  0  0  0  0  0  0  0  0  0  0
  1  2  1  0
  2  3  1  0
  3  4  1  0
  4  5  1  0
  5  6  1  0
  6  7  2  0
  7  8  1  0
  8  9  2  0
  9 10  1  0
 10 11  2  0
 11 12  1  0
 12 13  1  0
 13 14  1  0
 14 15  1  0
 15 16  1  0
 16 17  1  0
 17 18  1  0
 18 19  1  0
 15 20  1  0
 20 21  1  0
  9 22  1  0
 22 23  1  0
 22 24  1  0
 22 25  1  0
 25 26  1  0
 26 27  1  0
 27 28  2  0
 28 29  1  0
 29 30  1  0
 30 31  3  0
 29 32  2  0
 32 33  1  0
 33 34  2  0
 34 35  1  0
 35 36  1  0
 36 37  2  0
 11  6  1  0
 21 12  1  0
 35 25  2  0
 36  8  1  0
 19 16  1  0
 34 27  1  0
M  END
>  <Compound_ID>  (410) 
CHEMBL3960479

>  <Molecule Name>  (410) 
nan

>  <Molecular Weight>  (410) 
496.66

>  <AlogP>  (410) 
5.16

>  <Smiles>  (410) 
CCCCCc1cc2c(cc1N1CCN(C3COC3)CC1)C(C)(C)c1[nH]c3cc(C#N)ccc3c1C2=O

>  <Standard Type>  (410) 
IC50

>  <Standard Relation>  (410) 
'='

>  <Standard Units>  (410) 
nM

>  <Standard Value>  (410) 
15.05

>  <Assay ChEMBL ID>  (410) 
CHEMBL3887074

>  <Assay Description>  (410) 
Inhibition Assay: ALK-inhibiting activity was measured by following an activity of inhibiting phosphorylation by biotinylated peptide (EGPWLEEEEEAYGWMDF). For the detection of phosphorylation of the biotinylated peptide, time-resolved fluorescence measurement was performed using an anti-phosphorylated tyrosine antibody labeled with europium cryptate and streptavidin conjugated to XL665, i.e., an allophycocyanin derivative.

>  <BAO Format ID>  (410) 
BAO_0000357

>  <BAO Label>  (410) 
single protein format

>  <Assay Organism>  (410) 
Homo sapiens

>  <Target ChEMBL ID>  (410) 
CHEMBL4247

>  <Target Name>  (410) 
ALK tyrosine kinase receptor

>  <Target Organism>  (410) 
Homo sapiens

>  <Target Type>  (410) 
SINGLE PROTEIN

>  <Document ChEMBL ID>  (410) 
CHEMBL3886150

>  <Source Description>  (410) 
BindingDB Database

>  <Document Journal>  (410) 
nan

>  <Document Year>  (410) 
2015.0

>  <Active>  (410) 
1.0

>  <bits>  (410) 
<rdkit.DataStructs.cDataStructs.ExplicitBitVect object at 0x000002422F232180>

>  <Group>  (410) 
G2

$$$$

     RDKit          2D

 34 38  0  0  0  0  0  0  0  0999 V2000
    1.3396   -4.9944    0.0000 C   0  0  0  0  0  0  0  0  0  0  0  0
   -0.1568   -5.0991    0.0000 C   0  0  0  0  0  0  0  0  0  0  0  0
    0.2061   -6.5545    0.0000 C   0  0  0  0  0  0  0  0  0  0  0  0
   -1.5271   -5.7092    0.0000 C   0  0  0  0  0  0  0  0  0  0  0  0
   -1.6839   -7.2010    0.0000 C   0  0  0  0  0  0  0  0  0  0  0  0
   -3.0542   -7.8111    0.0000 C   0  0  0  0  0  0  0  0  0  0  0  0
   -3.2110   -9.3029    0.0000 N   0  0  0  0  0  0  0  0  0  0  0  0
   -4.5813   -9.9130    0.0000 C   0  0  0  0  0  0  0  0  0  0  0  0
   -4.7381  -11.4047    0.0000 C   0  0  0  0  0  0  0  0  0  0  0  0
   -3.5246  -12.2864    0.0000 C   0  0  0  0  0  0  0  0  0  0  0  0
   -3.6814  -13.7782    0.0000 N   0  0  0  0  0  0  0  0  0  0  0  0
   -5.0517  -14.3883    0.0000 S   0  0  0  0  0  0  0  0  0  0  0  0
   -6.4220  -14.9984    0.0000 C   0  0  0  0  0  0  0  0  0  0  0  0
   -5.6618  -13.0180    0.0000 O   0  0  0  0  0  0  0  0  0  0  0  0
   -4.4416  -15.7586    0.0000 O   0  0  0  0  0  0  0  0  0  0  0  0
   -2.1543  -11.6763    0.0000 C   0  0  0  0  0  0  0  0  0  0  0  0
   -1.9975  -10.1845    0.0000 C   0  0  0  0  0  0  0  0  0  0  0  0
   -4.2677   -6.9294    0.0000 C   0  0  0  0  0  0  0  0  0  0  0  0
   -5.6381   -7.5395    0.0000 Cl  0  0  0  0  0  0  0  0  0  0  0  0
   -4.1110   -5.4376    0.0000 C   0  0  0  0  0  0  0  0  0  0  0  0
   -2.7406   -4.8275    0.0000 C   0  0  0  0  0  0  0  0  0  0  0  0
   -2.5838   -3.3357    0.0000 C   0  0  0  0  0  0  0  0  0  0  0  0
   -3.7974   -2.4540    0.0000 O   0  0  0  0  0  0  0  0  0  0  0  0
   -1.2135   -2.7256    0.0000 C   0  0  0  0  0  0  0  0  0  0  0  0
   -0.0000   -3.6073    0.0000 C   0  0  0  0  0  0  0  0  0  0  0  0
    1.2135   -2.7256    0.0000 N   0  0  0  0  0  0  0  0  0  0  0  0
    0.7500   -1.2990    0.0000 C   0  0  0  0  0  0  0  0  0  0  0  0
    1.5000    0.0000    0.0000 C   0  0  0  0  0  0  0  0  0  0  0  0
    0.7500    1.2990    0.0000 C   0  0  0  0  0  0  0  0  0  0  0  0
    1.5000    2.5981    0.0000 C   0  0  0  0  0  0  0  0  0  0  0  0
    2.2500    3.8971    0.0000 N   0  0  0  0  0  0  0  0  0  0  0  0
   -0.7500    1.2990    0.0000 C   0  0  0  0  0  0  0  0  0  0  0  0
   -1.5000    0.0000    0.0000 C   0  0  0  0  0  0  0  0  0  0  0  0
   -0.7500   -1.2990    0.0000 C   0  0  0  0  0  0  0  0  0  0  0  0
  1  2  1  0
  2  3  1  0
  2  4  1  0
  4  5  2  0
  5  6  1  0
  6  7  1  0
  7  8  1  0
  8  9  1  0
  9 10  1  0
 10 11  1  0
 11 12  1  0
 12 13  1  0
 12 14  2  0
 12 15  2  0
 10 16  1  0
 16 17  1  0
  6 18  2  0
 18 19  1  0
 18 20  1  0
 20 21  2  0
 21 22  1  0
 22 23  2  0
 22 24  1  0
 24 25  2  0
 25 26  1  0
 26 27  1  0
 27 28  2  0
 28 29  1  0
 29 30  1  0
 30 31  3  0
 29 32  2  0
 32 33  1  0
 33 34  2  0
 25  2  1  0
 34 27  1  0
 21  4  1  0
 34 24  1  0
 17  7  1  0
M  END
>  <Compound_ID>  (411) 
CHEMBL3978878

>  <Molecule Name>  (411) 
nan

>  <Molecular Weight>  (411) 
497.02

>  <AlogP>  (411) 
4.08

>  <Smiles>  (411) 
CC1(C)c2cc(N3CCC(NS(C)(=O)=O)CC3)c(Cl)cc2C(=O)c2c1[nH]c1cc(C#N)ccc21

>  <Standard Type>  (411) 
IC50

>  <Standard Relation>  (411) 
'='

>  <Standard Units>  (411) 
nM

>  <Standard Value>  (411) 
1.864

>  <Assay ChEMBL ID>  (411) 
CHEMBL3887074

>  <Assay Description>  (411) 
Inhibition Assay: ALK-inhibiting activity was measured by following an activity of inhibiting phosphorylation by biotinylated peptide (EGPWLEEEEEAYGWMDF). For the detection of phosphorylation of the biotinylated peptide, time-resolved fluorescence measurement was performed using an anti-phosphorylated tyrosine antibody labeled with europium cryptate and streptavidin conjugated to XL665, i.e., an allophycocyanin derivative.

>  <BAO Format ID>  (411) 
BAO_0000357

>  <BAO Label>  (411) 
single protein format

>  <Assay Organism>  (411) 
Homo sapiens

>  <Target ChEMBL ID>  (411) 
CHEMBL4247

>  <Target Name>  (411) 
ALK tyrosine kinase receptor

>  <Target Organism>  (411) 
Homo sapiens

>  <Target Type>  (411) 
SINGLE PROTEIN

>  <Document ChEMBL ID>  (411) 
CHEMBL3886150

>  <Source Description>  (411) 
BindingDB Database

>  <Document Journal>  (411) 
nan

>  <Document Year>  (411) 
2015.0

>  <Active>  (411) 
1.0

>  <bits>  (411) 
<rdkit.DataStructs.cDataStructs.ExplicitBitVect object at 0x000002422F231540>

>  <Group>  (411) 
G2

$$$$

     RDKit          2D

 46 50  0  0  0  0  0  0  0  0999 V2000
    3.7500   -1.2990    0.0000 C   0  0  0  0  0  0  0  0  0  0  0  0
    3.0000    0.0000    0.0000 O   0  0  0  0  0  0  0  0  0  0  0  0
    1.5000    0.0000    0.0000 C   0  0  0  0  0  0  0  0  0  0  0  0
    0.7500   -1.2990    0.0000 C   0  0  0  0  0  0  0  0  0  0  0  0
   -0.7500   -1.2990    0.0000 C   0  0  0  0  0  0  0  0  0  0  0  0
   -1.5000   -2.5981    0.0000 N   0  0  0  0  0  0  0  0  0  0  0  0
   -3.0000   -2.5981    0.0000 C   0  0  0  0  0  0  0  0  0  0  0  0
   -3.7500   -3.8971    0.0000 C   0  0  0  0  0  0  0  0  0  0  0  0
   -3.0000   -5.1962    0.0000 N   0  0  0  0  0  0  0  0  0  0  0  0
   -3.7500   -6.4952    0.0000 C   0  0  0  0  0  0  0  0  0  0  0  0
   -5.2500   -6.4952    0.0000 C   0  0  0  0  0  0  0  0  0  0  0  0
   -3.0000   -7.7942    0.0000 O   0  0  0  0  0  0  0  0  0  0  0  0
   -1.5000   -5.1962    0.0000 C   0  0  0  0  0  0  0  0  0  0  0  0
   -0.7500   -3.8971    0.0000 C   0  0  0  0  0  0  0  0  0  0  0  0
   -1.5000    0.0000    0.0000 C   0  0  0  0  0  0  0  0  0  0  0  0
   -0.7500    1.2990    0.0000 C   0  0  0  0  0  0  0  0  0  0  0  0
    0.7500    1.2990    0.0000 C   0  0  0  0  0  0  0  0  0  0  0  0
    1.5000    2.5981    0.0000 N   0  0  0  0  0  0  0  0  0  0  0  0
    3.0000    2.5981    0.0000 C   0  0  0  0  0  0  0  0  0  0  0  0
    3.7500    1.2990    0.0000 N   0  0  0  0  0  0  0  0  0  0  0  0
    5.2500    1.2990    0.0000 C   0  0  0  0  0  0  0  0  0  0  0  0
    6.0000    2.5981    0.0000 C   0  0  0  0  0  0  0  0  0  0  0  0
    7.5000    2.5981    0.0000 C   0  0  0  0  0  0  0  0  0  0  0  0
    9.0000    2.5981    0.0000 F   0  0  0  0  0  0  0  0  0  0  0  0
    7.5000    1.0981    0.0000 F   0  0  0  0  0  0  0  0  0  0  0  0
    7.5000    4.0981    0.0000 F   0  0  0  0  0  0  0  0  0  0  0  0
    5.2500    3.8971    0.0000 C   0  0  0  0  0  0  0  0  0  0  0  0
    6.0000    5.1962    0.0000 N   0  0  0  0  0  0  0  0  0  0  0  0
    5.2500    6.4952    0.0000 C   0  0  0  0  0  0  0  0  0  0  0  0
    6.0000    7.7942    0.0000 C   0  0  0  0  0  0  0  0  0  0  0  0
    5.2500    9.0933    0.0000 C   0  0  0  0  0  0  0  0  0  0  0  0
    3.7500    9.0933    0.0000 C   0  0  0  0  0  0  0  0  0  0  0  0
    3.0000   10.3923    0.0000 N   0  0  0  0  0  0  0  0  0  0  0  0
    3.7500   11.6913    0.0000 C   0  0  0  0  0  0  0  0  0  0  0  0
    3.0000   12.9904    0.0000 C   0  0  0  0  0  0  0  0  0  0  0  0
    1.5000   12.9904    0.0000 N   0  0  0  0  0  0  0  0  0  0  0  0
    0.7500   14.2894    0.0000 C   0  0  0  0  0  0  0  0  0  0  0  0
    1.5000   15.5885    0.0000 C   0  0  0  0  0  0  0  0  0  0  0  0
   -0.7500   14.2894    0.0000 O   0  0  0  0  0  0  0  0  0  0  0  0
    0.7500   11.6913    0.0000 C   0  0  0  0  0  0  0  0  0  0  0  0
    1.5000   10.3923    0.0000 C   0  0  0  0  0  0  0  0  0  0  0  0
    3.0000    7.7942    0.0000 C   0  0  0  0  0  0  0  0  0  0  0  0
    3.7500    6.4952    0.0000 C   0  0  0  0  0  0  0  0  0  0  0  0
    3.0000    5.1962    0.0000 O   0  0  0  0  0  0  0  0  0  0  0  0
    1.5000    5.1962    0.0000 C   0  0  0  0  0  0  0  0  0  0  0  0
    3.7500    3.8971    0.0000 N   0  0  0  0  0  0  0  0  0  0  0  0
  1  2  1  0
  2  3  1  0
  3  4  2  0
  4  5  1  0
  5  6  1  0
  6  7  1  0
  7  8  1  0
  8  9  1  0
  9 10  1  0
 10 11  1  0
 10 12  2  0
  9 13  1  0
 13 14  1  0
  5 15  2  0
 15 16  1  0
 16 17  2  0
 17 18  1  0
 18 19  1  0
 19 20  2  0
 20 21  1  0
 21 22  2  0
 22 23  1  0
 23 24  1  0
 23 25  1  0
 23 26  1  0
 22 27  1  0
 27 28  1  0
 28 29  1  0
 29 30  2  0
 30 31  1  0
 31 32  2  0
 32 33  1  0
 33 34  1  0
 34 35  1  0
 35 36  1  0
 36 37  1  0
 37 38  1  0
 37 39  2  0
 36 40  1  0
 40 41  1  0
 32 42  1  0
 42 43  2  0
 43 44  1  0
 44 45  1  0
 27 46  2  0
 17  3  1  0
 46 19  1  0
 14  6  1  0
 43 29  1  0
 41 33  1  0
M  END
>  <Compound_ID>  (412) 
CHEMBL3919579

>  <Molecule Name>  (412) 
nan

>  <Molecular Weight>  (412) 
642.68

>  <AlogP>  (412) 
4.34

>  <Smiles>  (412) 
COc1cc(N2CCN(C(C)=O)CC2)ccc1Nc1ncc(C(F)(F)F)c(Nc2ccc(N3CCN(C(C)=O)CC3)cc2OC)n1

>  <Standard Type>  (412) 
IC50

>  <Standard Relation>  (412) 
'='

>  <Standard Units>  (412) 
nM

>  <Standard Value>  (412) 
49.0

>  <Assay ChEMBL ID>  (412) 
CHEMBL3887133

>  <Assay Description>  (412) 
Homogeneous Time-resolved fluorescence (HTRF) Assay: In order to measure the inhibitory activity against ALK, a Grainer 96-well round type bottom plate was added with the compounds (2 μl) prepared in Examples 1 to 89, and mixed with ALK enzyme (1 ul) and a peptide substrate (2 μl) with biotin attached thereto for 15 minutes and cultured thereafter. Here, ATP solution (5 μl) was added thereto and kinase reaction was performed at room temperature for 30 minutes. XL 665 (5 μl), to which Streptavidin dissolved in ethylenediaminetetraacetic acid solution was attached, anti-phosphotyrosine antibody (5 μl), to which europium (Eu3+) was attached, were added to a reaction solution to stop the reaction, cultured for 1 hour, and analyzed using Homogeneous Time-resolved fluorescence (HTRF, Cisbio). The result was read by a Wallac Envision 2103 device at the wavelength range of 615/665 nm.

>  <BAO Format ID>  (412) 
BAO_0000357

>  <BAO Label>  (412) 
single protein format

>  <Assay Organism>  (412) 
None

>  <Target ChEMBL ID>  (412) 
CHEMBL4247

>  <Target Name>  (412) 
ALK tyrosine kinase receptor

>  <Target Organism>  (412) 
Homo sapiens

>  <Target Type>  (412) 
SINGLE PROTEIN

>  <Document ChEMBL ID>  (412) 
CHEMBL3886178

>  <Source Description>  (412) 
BindingDB Database

>  <Document Journal>  (412) 
nan

>  <Document Year>  (412) 
2015.0

>  <Active>  (412) 
1.0

>  <bits>  (412) 
<rdkit.DataStructs.cDataStructs.ExplicitBitVect object at 0x000002422F2311C0>

>  <Group>  (412) 
G2

$$$$

     RDKit          2D

 42 46  0  0  0  0  0  0  0  0999 V2000
    3.7500   -1.2990    0.0000 C   0  0  0  0  0  0  0  0  0  0  0  0
    3.0000    0.0000    0.0000 O   0  0  0  0  0  0  0  0  0  0  0  0
    1.5000    0.0000    0.0000 C   0  0  0  0  0  0  0  0  0  0  0  0
    0.7500   -1.2990    0.0000 C   0  0  0  0  0  0  0  0  0  0  0  0
   -0.7500   -1.2990    0.0000 C   0  0  0  0  0  0  0  0  0  0  0  0
   -1.5000   -2.5981    0.0000 N   0  0  0  0  0  0  0  0  0  0  0  0
   -3.0000   -2.5981    0.0000 C   0  0  0  0  0  0  0  0  0  0  0  0
   -3.7500   -3.8971    0.0000 C   0  0  0  0  0  0  0  0  0  0  0  0
   -3.0000   -5.1962    0.0000 C   0  0  0  0  0  0  0  0  0  0  0  0
   -3.7500   -6.4952    0.0000 N   0  0  0  0  0  0  0  0  0  0  0  0
   -5.2500   -6.4952    0.0000 C   0  0  0  0  0  0  0  0  0  0  0  0
   -6.0000   -7.7942    0.0000 C   0  0  0  0  0  0  0  0  0  0  0  0
   -5.2500   -9.0933    0.0000 N   0  0  0  0  0  0  0  0  0  0  0  0
   -6.0000  -10.3923    0.0000 C   0  0  0  0  0  0  0  0  0  0  0  0
   -3.7500   -9.0933    0.0000 C   0  0  0  0  0  0  0  0  0  0  0  0
   -3.0000   -7.7942    0.0000 C   0  0  0  0  0  0  0  0  0  0  0  0
   -1.5000   -5.1962    0.0000 C   0  0  0  0  0  0  0  0  0  0  0  0
   -0.7500   -3.8971    0.0000 C   0  0  0  0  0  0  0  0  0  0  0  0
   -1.5000    0.0000    0.0000 C   0  0  0  0  0  0  0  0  0  0  0  0
   -0.7500    1.2990    0.0000 C   0  0  0  0  0  0  0  0  0  0  0  0
    0.7500    1.2990    0.0000 C   0  0  0  0  0  0  0  0  0  0  0  0
    1.5000    2.5981    0.0000 N   0  0  0  0  0  0  0  0  0  0  0  0
    3.0000    2.5981    0.0000 C   0  0  0  0  0  0  0  0  0  0  0  0
    3.7500    1.2990    0.0000 N   0  0  0  0  0  0  0  0  0  0  0  0
    5.2500    1.2990    0.0000 C   0  0  0  0  0  0  0  0  0  0  0  0
    6.0000    2.5981    0.0000 C   0  0  0  0  0  0  0  0  0  0  0  0
    7.5000    2.5981    0.0000 Cl  0  0  0  0  0  0  0  0  0  0  0  0
    5.2500    3.8971    0.0000 C   0  0  0  0  0  0  0  0  0  0  0  0
    6.0000    5.1962    0.0000 N   0  0  0  0  0  0  0  0  0  0  0  0
    5.2500    6.4952    0.0000 C   0  0  0  0  0  0  0  0  0  0  0  0
    3.7500    6.4952    0.0000 C   0  0  0  0  0  0  0  0  0  0  0  0
    3.0000    7.7942    0.0000 C   0  0  0  0  0  0  0  0  0  0  0  0
    3.7500    9.0933    0.0000 C   0  0  0  0  0  0  0  0  0  0  0  0
    5.2500    9.0933    0.0000 C   0  0  0  0  0  0  0  0  0  0  0  0
    6.0000    7.7942    0.0000 C   0  0  0  0  0  0  0  0  0  0  0  0
    7.5000    7.7942    0.0000 S   0  0  0  0  0  0  0  0  0  0  0  0
    7.5000    9.2942    0.0000 O   0  0  0  0  0  0  0  0  0  0  0  0
    7.5000    6.2942    0.0000 O   0  0  0  0  0  0  0  0  0  0  0  0
    9.0000    7.7942    0.0000 N   0  0  0  0  0  0  0  0  0  0  0  0
    9.7500    9.0933    0.0000 C   0  0  0  0  0  0  0  0  0  0  0  0
    9.7500    6.4952    0.0000 C   0  0  0  0  0  0  0  0  0  0  0  0
    3.7500    3.8971    0.0000 N   0  0  0  0  0  0  0  0  0  0  0  0
  1  2  1  0
  2  3  1  0
  3  4  2  0
  4  5  1  0
  5  6  1  0
  6  7  1  0
  7  8  1  0
  8  9  1  0
  9 10  1  0
 10 11  1  0
 11 12  1  0
 12 13  1  0
 13 14  1  0
 13 15  1  0
 15 16  1  0
  9 17  1  0
 17 18  1  0
  5 19  2  0
 19 20  1  0
 20 21  2  0
 21 22  1  0
 22 23  1  0
 23 24  2  0
 24 25  1  0
 25 26  2  0
 26 27  1  0
 26 28  1  0
 28 29  1  0
 29 30  1  0
 30 31  2  0
 31 32  1  0
 32 33  2  0
 33 34  1  0
 34 35  2  0
 35 36  1  0
 36 37  2  0
 36 38  2  0
 36 39  1  0
 39 40  1  0
 39 41  1  0
 28 42  2  0
 21  3  1  0
 42 23  1  0
 18  6  1  0
 35 30  1  0
 16 10  1  0
M  END
>  <Compound_ID>  (413) 
CHEMBL3822672

>  <Molecule Name>  (413) 
nan

>  <Molecular Weight>  (413) 
615.2

>  <AlogP>  (413) 
4.09

>  <Smiles>  (413) 
COc1cc(N2CCC(N3CCN(C)CC3)CC2)ccc1Nc1ncc(Cl)c(Nc2ccccc2S(=O)(=O)N(C)C)n1

>  <Standard Type>  (413) 
IC50

>  <Standard Relation>  (413) 
'='

>  <Standard Units>  (413) 
nM

>  <Standard Value>  (413) 
0.75

>  <Assay ChEMBL ID>  (413) 
CHEMBL3824709

>  <Assay Description>  (413) 
Inhibition of human ALK using poly[Glu:Tyr] (4:1) as substrate and [gamma-33P]ATP measured after 1 hr

>  <BAO Format ID>  (413) 
BAO_0000357

>  <BAO Label>  (413) 
single protein format

>  <Assay Organism>  (413) 
Homo sapiens

>  <Target ChEMBL ID>  (413) 
CHEMBL4247

>  <Target Name>  (413) 
ALK tyrosine kinase receptor

>  <Target Organism>  (413) 
Homo sapiens

>  <Target Type>  (413) 
SINGLE PROTEIN

>  <Document ChEMBL ID>  (413) 
CHEMBL3822358

>  <Source Description>  (413) 
Scientific Literature

>  <Document Journal>  (413) 
J Med Chem

>  <Document Year>  (413) 
2016.0

>  <Active>  (413) 
1.0

>  <bits>  (413) 
<rdkit.DataStructs.cDataStructs.ExplicitBitVect object at 0x000002422F2310E0>

>  <Group>  (413) 
G2

$$$$

     RDKit          2D

 38 42  0  0  0  0  0  0  0  0999 V2000
  -12.9381   -7.9010    0.0000 C   0  0  0  0  0  0  0  0  0  0  0  0
  -11.5115   -7.4375    0.0000 N   0  0  0  0  0  0  0  0  0  0  0  0
  -11.1996   -5.9703    0.0000 C   0  0  0  0  0  0  0  0  0  0  0  0
   -9.7730   -5.5068    0.0000 C   0  0  0  0  0  0  0  0  0  0  0  0
   -8.6583   -6.5105    0.0000 N   0  0  0  0  0  0  0  0  0  0  0  0
   -7.2317   -6.0469    0.0000 C   0  0  0  0  0  0  0  0  0  0  0  0
   -6.1170   -7.0506    0.0000 C   0  0  0  0  0  0  0  0  0  0  0  0
   -4.6904   -6.5871    0.0000 C   0  0  0  0  0  0  0  0  0  0  0  0
   -4.3786   -5.1199    0.0000 C   0  0  0  0  0  0  0  0  0  0  0  0
   -2.9520   -4.6564    0.0000 C   0  0  0  0  0  0  0  0  0  0  0  0
   -1.8373   -5.6601    0.0000 O   0  0  0  0  0  0  0  0  0  0  0  0
   -2.6401   -3.1891    0.0000 N   0  0  0  0  0  0  0  0  0  0  0  0
   -1.2135   -2.7256    0.0000 C   0  0  0  0  0  0  0  0  0  0  0  0
   -0.0000   -3.6073    0.0000 N   0  0  0  0  0  0  0  0  0  0  0  0
    1.2135   -2.7256    0.0000 N   0  0  0  0  0  0  0  0  0  0  0  0
    0.7500   -1.2990    0.0000 C   0  0  0  0  0  0  0  0  0  0  0  0
    1.5000    0.0000    0.0000 C   0  0  0  0  0  0  0  0  0  0  0  0
    0.7500    1.2990    0.0000 C   0  0  0  0  0  0  0  0  0  0  0  0
   -0.7500    1.2990    0.0000 C   0  0  0  0  0  0  0  0  0  0  0  0
   -1.5000    2.5981    0.0000 C   0  0  0  0  0  0  0  0  0  0  0  0
   -0.7500    3.8971    0.0000 C   0  0  0  0  0  0  0  0  0  0  0  0
    0.7500    3.8971    0.0000 C   0  0  0  0  0  0  0  0  0  0  0  0
    1.5000    5.1962    0.0000 C   0  0  0  0  0  0  0  0  0  0  0  0
    3.0000    5.1962    0.0000 F   0  0  0  0  0  0  0  0  0  0  0  0
    0.7500    6.4952    0.0000 C   0  0  0  0  0  0  0  0  0  0  0  0
   -0.7500    6.4952    0.0000 C   0  0  0  0  0  0  0  0  0  0  0  0
   -1.5000    7.7942    0.0000 F   0  0  0  0  0  0  0  0  0  0  0  0
   -1.5000    5.1962    0.0000 C   0  0  0  0  0  0  0  0  0  0  0  0
   -1.5000    0.0000    0.0000 C   0  0  0  0  0  0  0  0  0  0  0  0
   -0.7500   -1.2990    0.0000 C   0  0  0  0  0  0  0  0  0  0  0  0
   -5.4933   -4.1162    0.0000 C   0  0  0  0  0  0  0  0  0  0  0  0
   -5.1814   -2.6490    0.0000 N   0  0  0  0  0  0  0  0  0  0  0  0
   -6.2961   -1.6453    0.0000 C   0  0  0  0  0  0  0  0  0  0  0  0
   -5.9843   -0.1781    0.0000 C   0  0  0  0  0  0  0  0  0  0  0  0
   -7.0990    0.8256    0.0000 F   0  0  0  0  0  0  0  0  0  0  0  0
   -6.9199   -4.5797    0.0000 C   0  0  0  0  0  0  0  0  0  0  0  0
   -8.9702   -7.9777    0.0000 C   0  0  0  0  0  0  0  0  0  0  0  0
  -10.3968   -8.4412    0.0000 C   0  0  0  0  0  0  0  0  0  0  0  0
  1  2  1  0
  2  3  1  0
  3  4  1  0
  4  5  1  0
  5  6  1  0
  6  7  2  0
  7  8  1  0
  8  9  2  0
  9 10  1  0
 10 11  2  0
 10 12  1  0
 12 13  1  0
 13 14  2  0
 14 15  1  0
 15 16  1  0
 16 17  2  0
 17 18  1  0
 18 19  2  0
 19 20  1  0
 20 21  1  0
 21 22  2  0
 22 23  1  0
 23 24  1  0
 23 25  2  0
 25 26  1  0
 26 27  1  0
 26 28  2  0
 19 29  1  0
 29 30  2  0
  9 31  1  0
 31 32  1  0
 32 33  1  0
 33 34  1  0
 34 35  1  0
 31 36  2  0
  5 37  1  0
 37 38  1  0
 38  2  1  0
 36  6  1  0
 30 13  1  0
 30 16  1  0
 28 21  1  0
M  END
>  <Compound_ID>  (414) 
CHEMBL3805899

>  <Molecule Name>  (414) 
nan

>  <Molecular Weight>  (414) 
522.58

>  <AlogP>  (414) 
4.82

>  <Smiles>  (414) 
CN1CCN(c2ccc(C(=O)Nc3n[nH]c4ccc(Cc5cc(F)cc(F)c5)cc34)c(NCCF)c2)CC1

>  <Standard Type>  (414) 
IC50

>  <Standard Relation>  (414) 
'='

>  <Standard Units>  (414) 
nM

>  <Standard Value>  (414) 
14.0

>  <Assay ChEMBL ID>  (414) 
CHEMBL3806916

>  <Assay Description>  (414) 
Inhibition of recombinant ALK (unknown origin) in presence of gamma33-ATP

>  <BAO Format ID>  (414) 
BAO_0000357

>  <BAO Label>  (414) 
single protein format

>  <Assay Organism>  (414) 
Homo sapiens

>  <Target ChEMBL ID>  (414) 
CHEMBL4247

>  <Target Name>  (414) 
ALK tyrosine kinase receptor

>  <Target Organism>  (414) 
Homo sapiens

>  <Target Type>  (414) 
SINGLE PROTEIN

>  <Document ChEMBL ID>  (414) 
CHEMBL3804811

>  <Source Description>  (414) 
Scientific Literature

>  <Document Journal>  (414) 
J Med Chem

>  <Document Year>  (414) 
2016.0

>  <Active>  (414) 
1.0

>  <bits>  (414) 
<rdkit.DataStructs.cDataStructs.ExplicitBitVect object at 0x000002422F230DD0>

>  <Group>  (414) 
G2

$$$$

     RDKit          2D

 40 45  0  0  0  0  0  0  0  0999 V2000
  -12.9381   -7.9010    0.0000 C   0  0  0  0  0  0  0  0  0  0  0  0
  -11.5115   -7.4375    0.0000 N   0  0  0  0  0  0  0  0  0  0  0  0
  -11.1996   -5.9703    0.0000 C   0  0  0  0  0  0  0  0  0  0  0  0
   -9.7730   -5.5068    0.0000 C   0  0  0  0  0  0  0  0  0  0  0  0
   -8.6583   -6.5105    0.0000 N   0  0  0  0  0  0  0  0  0  0  0  0
   -7.2317   -6.0469    0.0000 C   0  0  0  0  0  0  0  0  0  0  0  0
   -6.1170   -7.0506    0.0000 C   0  0  0  0  0  0  0  0  0  0  0  0
   -4.6904   -6.5871    0.0000 C   0  0  0  0  0  0  0  0  0  0  0  0
   -4.3786   -5.1199    0.0000 C   0  0  0  0  0  0  0  0  0  0  0  0
   -2.9520   -4.6564    0.0000 C   0  0  0  0  0  0  0  0  0  0  0  0
   -1.8373   -5.6601    0.0000 O   0  0  0  0  0  0  0  0  0  0  0  0
   -2.6401   -3.1891    0.0000 N   0  0  0  0  0  0  0  0  0  0  0  0
   -1.2135   -2.7256    0.0000 C   0  0  0  0  0  0  0  0  0  0  0  0
   -0.0000   -3.6073    0.0000 N   0  0  0  0  0  0  0  0  0  0  0  0
    1.2135   -2.7256    0.0000 N   0  0  0  0  0  0  0  0  0  0  0  0
    0.7500   -1.2990    0.0000 C   0  0  0  0  0  0  0  0  0  0  0  0
    1.5000    0.0000    0.0000 C   0  0  0  0  0  0  0  0  0  0  0  0
    0.7500    1.2990    0.0000 C   0  0  0  0  0  0  0  0  0  0  0  0
   -0.7500    1.2990    0.0000 C   0  0  0  0  0  0  0  0  0  0  0  0
   -1.5000    2.5981    0.0000 C   0  0  0  0  0  0  0  0  0  0  0  0
   -0.7500    3.8971    0.0000 C   0  0  0  0  0  0  0  0  0  0  0  0
    0.7500    3.8971    0.0000 C   0  0  0  0  0  0  0  0  0  0  0  0
    1.5000    5.1962    0.0000 C   0  0  0  0  0  0  0  0  0  0  0  0
    0.7500    6.4952    0.0000 C   0  0  0  0  0  0  0  0  0  0  0  0
   -0.7500    6.4952    0.0000 C   0  0  0  0  0  0  0  0  0  0  0  0
   -1.5000    7.7942    0.0000 F   0  0  0  0  0  0  0  0  0  0  0  0
   -1.5000    5.1962    0.0000 C   0  0  0  0  0  0  0  0  0  0  0  0
   -1.5000    0.0000    0.0000 C   0  0  0  0  0  0  0  0  0  0  0  0
   -0.7500   -1.2990    0.0000 C   0  0  0  0  0  0  0  0  0  0  0  0
   -5.4933   -4.1162    0.0000 C   0  0  0  0  0  0  0  0  0  0  0  0
   -5.1814   -2.6490    0.0000 N   0  0  0  0  0  0  0  0  0  0  0  0
   -6.2961   -1.6453    0.0000 C   0  0  0  0  0  0  0  0  0  0  0  0
   -5.9843   -0.1781    0.0000 C   0  0  0  0  0  0  0  0  0  0  0  0
   -7.0990    0.8256    0.0000 C   0  0  0  0  0  0  0  0  0  0  0  0
   -8.5256    0.3621    0.0000 O   0  0  0  0  0  0  0  0  0  0  0  0
   -8.8374   -1.1051    0.0000 C   0  0  0  0  0  0  0  0  0  0  0  0
   -7.7227   -2.1088    0.0000 C   0  0  0  0  0  0  0  0  0  0  0  0
   -6.9199   -4.5797    0.0000 C   0  0  0  0  0  0  0  0  0  0  0  0
   -8.9702   -7.9777    0.0000 C   0  0  0  0  0  0  0  0  0  0  0  0
  -10.3968   -8.4412    0.0000 C   0  0  0  0  0  0  0  0  0  0  0  0
  1  2  1  0
  2  3  1  0
  3  4  1  0
  4  5  1  0
  5  6  1  0
  6  7  2  0
  7  8  1  0
  8  9  2  0
  9 10  1  0
 10 11  2  0
 10 12  1  0
 12 13  1  0
 13 14  2  0
 14 15  1  0
 15 16  1  0
 16 17  2  0
 17 18  1  0
 18 19  2  0
 19 20  1  0
 20 21  1  0
 21 22  2  0
 22 23  1  0
 23 24  2  0
 24 25  1  0
 25 26  1  0
 25 27  2  0
 19 28  1  0
 28 29  2  0
  9 30  1  0
 30 31  1  0
 31 32  1  0
 32 33  1  0
 33 34  1  0
 34 35  1  0
 35 36  1  0
 36 37  1  0
 30 38  2  0
  5 39  1  0
 39 40  1  0
 40  2  1  0
 38  6  1  0
 29 13  1  0
 37 32  1  0
 29 16  1  0
 27 21  1  0
M  END
>  <Compound_ID>  (415) 
CHEMBL3805002

>  <Molecule Name>  (415) 
nan

>  <Molecular Weight>  (415) 
542.66

>  <AlogP>  (415) 
4.89

>  <Smiles>  (415) 
CN1CCN(c2ccc(C(=O)Nc3n[nH]c4ccc(Cc5cccc(F)c5)cc34)c(NC3CCOCC3)c2)CC1

>  <Standard Type>  (415) 
IC50

>  <Standard Relation>  (415) 
'='

>  <Standard Units>  (415) 
nM

>  <Standard Value>  (415) 
30.0

>  <Assay ChEMBL ID>  (415) 
CHEMBL3806916

>  <Assay Description>  (415) 
Inhibition of recombinant ALK (unknown origin) in presence of gamma33-ATP

>  <BAO Format ID>  (415) 
BAO_0000357

>  <BAO Label>  (415) 
single protein format

>  <Assay Organism>  (415) 
Homo sapiens

>  <Target ChEMBL ID>  (415) 
CHEMBL4247

>  <Target Name>  (415) 
ALK tyrosine kinase receptor

>  <Target Organism>  (415) 
Homo sapiens

>  <Target Type>  (415) 
SINGLE PROTEIN

>  <Document ChEMBL ID>  (415) 
CHEMBL3804811

>  <Source Description>  (415) 
Scientific Literature

>  <Document Journal>  (415) 
J Med Chem

>  <Document Year>  (415) 
2016.0

>  <Active>  (415) 
1.0

>  <bits>  (415) 
<rdkit.DataStructs.cDataStructs.ExplicitBitVect object at 0x000002422F230AC0>

>  <Group>  (415) 
G2

$$$$

     RDKit          2D

 34 38  0  0  0  0  0  0  0  0999 V2000
   -3.0000   -5.1962    0.0000 C   0  0  0  0  0  0  0  0  0  0  0  0
   -1.5000   -5.1962    0.0000 O   0  0  0  0  0  0  0  0  0  0  0  0
   -0.7500   -3.8971    0.0000 C   0  0  0  0  0  0  0  0  0  0  0  0
   -1.5000   -2.5981    0.0000 C   0  0  0  0  0  0  0  0  0  0  0  0
   -0.7500   -1.2990    0.0000 C   0  0  0  0  0  0  0  0  0  0  0  0
    0.7500   -1.2990    0.0000 C   0  0  0  0  0  0  0  0  0  0  0  0
    1.5000   -2.5981    0.0000 C   0  0  0  0  0  0  0  0  0  0  0  0
    0.7500   -3.8971    0.0000 C   0  0  0  0  0  0  0  0  0  0  0  0
    1.5000   -5.1962    0.0000 N   0  0  0  0  0  0  0  0  0  0  0  0
    0.7500   -6.4952    0.0000 C   0  0  0  0  0  0  0  0  0  0  0  0
   -0.7500   -6.4952    0.0000 N   0  0  0  0  0  0  0  0  0  0  0  0
   -1.5000   -7.7942    0.0000 C   0  0  0  0  0  0  0  0  0  0  0  0
   -3.0000   -7.7942    0.0000 C   0  0  0  0  0  0  0  0  0  0  0  0
   -3.7500   -9.0933    0.0000 C   0  0  0  0  0  0  0  0  0  0  0  0
   -5.2500   -9.0933    0.0000 C   0  0  0  0  0  0  0  0  0  0  0  0
   -6.0000   -7.7942    0.0000 Cl  0  0  0  0  0  0  0  0  0  0  0  0
   -6.0000  -10.3923    0.0000 C   0  0  0  0  0  0  0  0  0  0  0  0
   -5.2500  -11.6913    0.0000 C   0  0  0  0  0  0  0  0  0  0  0  0
   -3.7500  -11.6913    0.0000 C   0  0  0  0  0  0  0  0  0  0  0  0
   -3.0000  -10.3923    0.0000 C   0  0  0  0  0  0  0  0  0  0  0  0
   -2.1406  -10.6066    0.0000 Cl  0  0  0  0  0  0  0  0  0  0  0  0
   -0.7500   -9.0933    0.0000 C   0  0  0  0  0  0  0  0  0  0  0  0
   -1.2135  -10.5199    0.0000 N   0  0  0  0  0  0  0  0  0  0  0  0
   -0.0000  -11.4015    0.0000 C   0  0  0  0  0  0  0  0  0  0  0  0
    1.2135  -10.5199    0.0000 N   0  0  0  0  0  0  0  0  0  0  0  0
    0.7500   -9.0933    0.0000 C   0  0  0  0  0  0  0  0  0  0  0  0
    1.5000   -7.7942    0.0000 C   0  0  0  0  0  0  0  0  0  0  0  0
    3.0000   -7.7942    0.0000 C   0  0  0  0  0  0  0  0  0  0  0  0
    3.7500   -9.0933    0.0000 N   0  0  0  0  0  0  0  0  0  0  0  0
    3.7500   -6.4952    0.0000 O   0  0  0  0  0  0  0  0  0  0  0  0
    1.5000    0.0000    0.0000 C   0  0  0  0  0  0  0  0  0  0  0  0
    0.7500    1.2990    0.0000 N   0  0  0  0  0  0  0  0  0  0  0  0
   -0.7500    1.2990    0.0000 C   0  0  0  0  0  0  0  0  0  0  0  0
   -1.5000    0.0000    0.0000 C   0  0  0  0  0  0  0  0  0  0  0  0
  1  2  1  0
  2  3  1  0
  3  4  2  0
  4  5  1  0
  5  6  2  0
  6  7  1  0
  7  8  2  0
  8  9  1  0
  9 10  1  0
 10 11  2  0
 11 12  1  0
 12 13  1  0
 13 14  1  0
 14 15  2  0
 15 16  1  0
 15 17  1  0
 17 18  2  0
 18 19  1  0
 19 20  2  0
 20 21  1  0
 12 22  2  0
 22 23  1  0
 23 24  2  0
 24 25  1  0
 25 26  1  0
 26 27  2  0
 27 28  1  0
 28 29  1  0
 28 30  2  0
  6 31  1  0
 31 32  1  0
 32 33  1  0
 33 34  1  0
  8  3  1  0
 27 10  1  0
 34  5  1  0
 20 14  1  0
 26 22  1  0
M  END
>  <Compound_ID>  (416) 
CHEMBL3914113

>  <Molecule Name>  (416) 
nan

>  <Molecular Weight>  (416) 
497.39

>  <AlogP>  (416) 
4.35

>  <Smiles>  (416) 
COc1cc2c(cc1Nc1nc(Cc3c(Cl)cccc3Cl)c3nc[nH]c3c1C(N)=O)CNCC2

>  <Standard Type>  (416) 
Ki

>  <Standard Relation>  (416) 
'='

>  <Standard Units>  (416) 
nM

>  <Standard Value>  (416) 
1.0

>  <Assay ChEMBL ID>  (416) 
CHEMBL3887723

>  <Assay Description>  (416) 
Enzyme Inhibition Assay: ALK kinase assays were conducted with the indicated final concentrations unless otherwise specified. In 384 well black plates (Axygen), 8 ul of compound (2% DMSO) was incubated with 8 ul Lck-peptide substrate (0.5 uM, biotin-Ahx-GAEEEIYAAFFA-COOH) and 8 ul of a mixture of ALK (3 nM, Millipore) and ATP (50 uM) in reaction buffer (50 mM Hepes, pH 7.4; 10 mM MgCl2; 2 mM MnCl2; 0.1 mM sodium orthovanadate; 0.01% BSA and 1 mM DTT (added fresh before assay) for 1 h at room temperature. Reactions were then quenched by the addition of 30 ul quench solution (streptavidin-allophycocyanin and Europium-cryptate PT66 monoclonal antibody in 40 mM Hepes, pH 7.4; 480 mM KF; 66 mM EDTA; 0.01% Tween-20; and 0.1% BSA) at room temperature. Plates were read 1 h after quenching on an Envision Multilaber Reader and IC50 values were calculated using a sigmoidal fit of the concentration/inhibition response curves. These values were converted to apparent Ki values.

>  <BAO Format ID>  (416) 
BAO_0000357

>  <BAO Label>  (416) 
single protein format

>  <Assay Organism>  (416) 
Homo sapiens

>  <Target ChEMBL ID>  (416) 
CHEMBL4247

>  <Target Name>  (416) 
ALK tyrosine kinase receptor

>  <Target Organism>  (416) 
Homo sapiens

>  <Target Type>  (416) 
SINGLE PROTEIN

>  <Document ChEMBL ID>  (416) 
CHEMBL3886424

>  <Source Description>  (416) 
BindingDB Database

>  <Document Journal>  (416) 
nan

>  <Document Year>  (416) 
2015.0

>  <Active>  (416) 
1.0

>  <bits>  (416) 
<rdkit.DataStructs.cDataStructs.ExplicitBitVect object at 0x000002422F230740>

>  <Group>  (416) 
G2

$$$$

     RDKit          2D

 48 51  0  0  0  0  0  0  0  0999 V2000
    3.7500   -1.2990    0.0000 C   0  0  0  0  0  0  0  0  0  0  0  0
    3.0000    0.0000    0.0000 O   0  0  0  0  0  0  0  0  0  0  0  0
    1.5000    0.0000    0.0000 C   0  0  0  0  0  0  0  0  0  0  0  0
    0.7500   -1.2990    0.0000 C   0  0  0  0  0  0  0  0  0  0  0  0
   -0.7500   -1.2990    0.0000 C   0  0  0  0  0  0  0  0  0  0  0  0
   -1.5000    0.0000    0.0000 C   0  0  0  0  0  0  0  0  0  0  0  0
   -3.0000    0.0000    0.0000 N   0  0  0  0  0  0  0  0  0  0  0  0
   -3.7500    1.2990    0.0000 C   0  0  0  0  0  0  0  0  0  0  0  0
   -3.0000    2.5981    0.0000 O   0  0  0  0  0  0  0  0  0  0  0  0
   -5.2500    1.2990    0.0000 C   0  0  0  0  0  0  0  0  0  0  0  0
   -6.0000    2.5981    0.0000 N   0  0  0  0  0  0  0  0  0  0  0  0
   -7.5000    2.5981    0.0000 C   0  0  0  0  0  0  0  0  0  0  0  0
   -8.2500    1.2990    0.0000 O   0  0  0  0  0  0  0  0  0  0  0  0
   -8.2500    3.8971    0.0000 C   0  0  0  0  0  0  0  0  0  0  0  0
   -7.5000    5.1962    0.0000 C   0  0  0  0  0  0  0  0  0  0  0  0
   -8.2500    6.4952    0.0000 C   0  0  0  0  0  0  0  0  0  0  0  0
   -7.5000    7.7942    0.0000 C   0  0  0  0  0  0  0  0  0  0  0  0
   -6.0000    7.7942    0.0000 C   0  0  0  0  0  0  0  0  0  0  0  0
   -8.2500    9.0933    0.0000 C   0  0  0  0  0  0  0  0  0  0  0  0
   -9.7500    6.4952    0.0000 C   0  0  0  0  0  0  0  0  0  0  0  0
  -10.5000    7.7942    0.0000 O   0  0  0  0  0  0  0  0  0  0  0  0
  -12.0000    7.7942    0.0000 C   0  0  0  0  0  0  0  0  0  0  0  0
  -10.5000    5.1962    0.0000 C   0  0  0  0  0  0  0  0  0  0  0  0
   -9.7500    3.8971    0.0000 C   0  0  0  0  0  0  0  0  0  0  0  0
  -10.5000    2.5981    0.0000 O   0  0  0  0  0  0  0  0  0  0  0  0
   -0.7500    1.2990    0.0000 C   0  0  0  0  0  0  0  0  0  0  0  0
    0.7500    1.2990    0.0000 C   0  0  0  0  0  0  0  0  0  0  0  0
    1.5000    2.5981    0.0000 N   0  0  0  0  0  0  0  0  0  0  0  0
    3.0000    2.5981    0.0000 C   0  0  0  0  0  0  0  0  0  0  0  0
    3.7500    1.2990    0.0000 N   0  0  0  0  0  0  0  0  0  0  0  0
    5.2500    1.2990    0.0000 C   0  0  0  0  0  0  0  0  0  0  0  0
    6.0000    2.5981    0.0000 C   0  0  0  0  0  0  0  0  0  0  0  0
    7.5000    2.5981    0.0000 Cl  0  0  0  0  0  0  0  0  0  0  0  0
    5.2500    3.8971    0.0000 C   0  0  0  0  0  0  0  0  0  0  0  0
    6.0000    5.1962    0.0000 N   0  0  0  0  0  0  0  0  0  0  0  0
    5.2500    6.4952    0.0000 C   0  0  0  0  0  0  0  0  0  0  0  0
    3.7500    6.4952    0.0000 C   0  0  0  0  0  0  0  0  0  0  0  0
    3.0000    7.7942    0.0000 C   0  0  0  0  0  0  0  0  0  0  0  0
    3.7500    9.0933    0.0000 C   0  0  0  0  0  0  0  0  0  0  0  0
    5.2500    9.0933    0.0000 C   0  0  0  0  0  0  0  0  0  0  0  0
    6.0000    7.7942    0.0000 C   0  0  0  0  0  0  0  0  0  0  0  0
    7.5000    7.7942    0.0000 S   0  0  0  0  0  0  0  0  0  0  0  0
    7.5000    6.2942    0.0000 O   0  0  0  0  0  0  0  0  0  0  0  0
    7.5000    9.2942    0.0000 O   0  0  0  0  0  0  0  0  0  0  0  0
    9.0000    7.7942    0.0000 C   0  0  0  0  0  0  0  0  0  0  0  0
    9.7500    9.0933    0.0000 C   0  0  0  0  0  0  0  0  0  0  0  0
    9.7500    6.4952    0.0000 C   0  0  0  0  0  0  0  0  0  0  0  0
    3.7500    3.8971    0.0000 N   0  0  0  0  0  0  0  0  0  0  0  0
  1  2  1  0
  2  3  1  0
  3  4  2  0
  4  5  1  0
  5  6  2  0
  6  7  1  0
  7  8  1  0
  8  9  2  0
  8 10  1  0
 10 11  1  0
 11 12  1  0
 12 13  2  0
 12 14  1  0
 14 15  2  0
 15 16  1  0
 16 17  1  0
 17 18  1  0
 17 19  1  0
 16 20  2  0
 20 21  1  0
 21 22  1  0
 20 23  1  0
 23 24  2  0
 24 25  1  0
  6 26  1  0
 26 27  2  0
 27 28  1  0
 28 29  1  0
 29 30  2  0
 30 31  1  0
 31 32  2  0
 32 33  1  0
 32 34  1  0
 34 35  1  0
 35 36  1  0
 36 37  2  0
 37 38  1  0
 38 39  2  0
 39 40  1  0
 40 41  2  0
 41 42  1  0
 42 43  2  0
 42 44  2  0
 42 45  1  0
 45 46  1  0
 45 47  1  0
 34 48  2  0
 27  3  1  0
 48 29  1  0
 24 14  1  0
 41 36  1  0
M  END
>  <Compound_ID>  (417) 
CHEMBL4170592

>  <Molecule Name>  (417) 
nan

>  <Molecular Weight>  (417) 
697.21

>  <AlogP>  (417) 
6.01

>  <Smiles>  (417) 
COc1ccc(NC(=O)CNC(=O)c2cc(C(C)C)c(OC)cc2O)cc1Nc1ncc(Cl)c(Nc2ccccc2S(=O)(=O)C(C)C)n1

>  <Standard Type>  (417) 
IC50

>  <Standard Relation>  (417) 
'='

>  <Standard Units>  (417) 
nM

>  <Standard Value>  (417) 
10.5

>  <Assay ChEMBL ID>  (417) 
CHEMBL4146207

>  <Assay Description>  (417) 
Inhibition of recombinant ALK (unknown origin) using poly (Glu,Tyr) 4:1 as substrate incubated for 60 mins by ELISA

>  <BAO Format ID>  (417) 
BAO_0000357

>  <BAO Label>  (417) 
single protein format

>  <Assay Organism>  (417) 
Homo sapiens

>  <Target ChEMBL ID>  (417) 
CHEMBL4247

>  <Target Name>  (417) 
ALK tyrosine kinase receptor

>  <Target Organism>  (417) 
Homo sapiens

>  <Target Type>  (417) 
SINGLE PROTEIN

>  <Document ChEMBL ID>  (417) 
CHEMBL4145454

>  <Source Description>  (417) 
Scientific Literature

>  <Document Journal>  (417) 
Eur J Med Chem

>  <Document Year>  (417) 
2018.0

>  <Active>  (417) 
1.0

>  <bits>  (417) 
<rdkit.DataStructs.cDataStructs.ExplicitBitVect object at 0x000002422F2305F0>

>  <Group>  (417) 
G2

$$$$

     RDKit          2D

 31 35  0  0  0  0  0  0  0  0999 V2000
    3.0000   -7.7942    0.0000 C   0  0  0  0  0  0  0  0  0  0  0  0
    3.7500   -6.4952    0.0000 C   0  0  0  0  0  0  0  0  0  0  0  0
    5.2500   -6.4952    0.0000 C   0  0  0  0  0  0  0  0  0  0  0  0
    3.0000   -5.1962    0.0000 N   0  0  0  0  0  0  0  0  0  0  0  0
    1.5000   -5.1962    0.0000 C   0  0  0  0  0  0  0  0  0  0  0  0
    0.7500   -3.8971    0.0000 C   0  0  0  0  0  0  0  0  0  0  0  0
    1.5000   -2.5981    0.0000 C   0  0  0  0  0  0  0  0  0  0  0  0
    0.7500   -1.2990    0.0000 C   0  0  0  0  0  0  0  0  0  0  0  0
    1.5000    0.0000    0.0000 C   0  0  0  0  0  0  0  0  0  0  0  0
    0.7500    1.2990    0.0000 C   0  0  0  0  0  0  0  0  0  0  0  0
   -0.7500    1.2990    0.0000 C   0  0  0  0  0  0  0  0  0  0  0  0
   -1.5000    0.0000    0.0000 C   0  0  0  0  0  0  0  0  0  0  0  0
   -0.7500   -1.2990    0.0000 C   0  0  0  0  0  0  0  0  0  0  0  0
   -3.0000    0.0000    0.0000 C   0  0  0  0  0  0  0  0  0  0  0  0
   -4.4095   -0.5130    0.0000 C   0  0  0  0  0  0  0  0  0  0  0  0
   -2.7395   -1.4772    0.0000 C   0  0  0  0  0  0  0  0  0  0  0  0
   -3.7500    1.2990    0.0000 C   0  0  0  0  0  0  0  0  0  0  0  0
   -5.2172    1.6109    0.0000 N   0  0  0  0  0  0  0  0  0  0  0  0
   -5.3740    3.1027    0.0000 C   0  0  0  0  0  0  0  0  0  0  0  0
   -6.5875    3.9844    0.0000 C   0  0  0  0  0  0  0  0  0  0  0  0
   -6.4307    5.4761    0.0000 C   0  0  0  0  0  0  0  0  0  0  0  0
   -7.6443    6.3578    0.0000 C   0  0  0  0  0  0  0  0  0  0  0  0
   -8.8578    7.2395    0.0000 N   0  0  0  0  0  0  0  0  0  0  0  0
   -5.0604    6.0863    0.0000 C   0  0  0  0  0  0  0  0  0  0  0  0
   -3.8469    5.2046    0.0000 C   0  0  0  0  0  0  0  0  0  0  0  0
   -4.0037    3.7128    0.0000 C   0  0  0  0  0  0  0  0  0  0  0  0
   -3.0000    2.5981    0.0000 C   0  0  0  0  0  0  0  0  0  0  0  0
   -1.5000    2.5981    0.0000 C   0  0  0  0  0  0  0  0  0  0  0  0
   -0.7500    3.8971    0.0000 O   0  0  0  0  0  0  0  0  0  0  0  0
    3.0000   -2.5981    0.0000 C   0  0  0  0  0  0  0  0  0  0  0  0
    3.7500   -3.8971    0.0000 C   0  0  0  0  0  0  0  0  0  0  0  0
  1  2  1  0
  2  3  1  0
  2  4  1  0
  4  5  1  0
  5  6  1  0
  6  7  1  0
  7  8  1  0
  8  9  2  0
  9 10  1  0
 10 11  2  0
 11 12  1  0
 12 13  2  0
 12 14  1  0
 14 15  1  0
 14 16  1  0
 14 17  1  0
 17 18  1  0
 18 19  1  0
 19 20  2  0
 20 21  1  0
 21 22  1  0
 22 23  3  0
 21 24  2  0
 24 25  1  0
 25 26  2  0
 26 27  1  0
 27 28  1  0
 28 29  2  0
  7 30  1  0
 30 31  1  0
 31  4  1  0
 13  8  1  0
 27 17  2  0
 28 11  1  0
 26 19  1  0
M  END
>  <Compound_ID>  (418) 
CHEMBL3945000

>  <Molecule Name>  (418) 
nan

>  <Molecular Weight>  (418) 
411.55

>  <AlogP>  (418) 
5.50

>  <Smiles>  (418) 
CC(C)N1CCC(c2ccc3c(c2)C(C)(C)c2[nH]c4cc(C#N)ccc4c2C3=O)CC1

>  <Standard Type>  (418) 
IC50

>  <Standard Relation>  (418) 
'='

>  <Standard Units>  (418) 
nM

>  <Standard Value>  (418) 
0.84

>  <Assay ChEMBL ID>  (418) 
CHEMBL3887074

>  <Assay Description>  (418) 
Inhibition Assay: ALK-inhibiting activity was measured by following an activity of inhibiting phosphorylation by biotinylated peptide (EGPWLEEEEEAYGWMDF). For the detection of phosphorylation of the biotinylated peptide, time-resolved fluorescence measurement was performed using an anti-phosphorylated tyrosine antibody labeled with europium cryptate and streptavidin conjugated to XL665, i.e., an allophycocyanin derivative.

>  <BAO Format ID>  (418) 
BAO_0000357

>  <BAO Label>  (418) 
single protein format

>  <Assay Organism>  (418) 
Homo sapiens

>  <Target ChEMBL ID>  (418) 
CHEMBL4247

>  <Target Name>  (418) 
ALK tyrosine kinase receptor

>  <Target Organism>  (418) 
Homo sapiens

>  <Target Type>  (418) 
SINGLE PROTEIN

>  <Document ChEMBL ID>  (418) 
CHEMBL3886150

>  <Source Description>  (418) 
BindingDB Database

>  <Document Journal>  (418) 
nan

>  <Document Year>  (418) 
2015.0

>  <Active>  (418) 
1.0

>  <bits>  (418) 
<rdkit.DataStructs.cDataStructs.ExplicitBitVect object at 0x000002422F2322D0>

>  <Group>  (418) 
G2

$$$$

     RDKit          2D

 43 47  0  0  0  0  0  0  0  0999 V2000
  -11.3787   -0.5649    0.0000 C   0  0  0  0  0  0  0  0  0  0  0  0
  -10.2640   -1.5686    0.0000 N   0  0  0  0  0  0  0  0  0  0  0  0
   -8.8374   -1.1051    0.0000 C   0  0  0  0  0  0  0  0  0  0  0  0
  -10.5759   -3.0359    0.0000 C   0  0  0  0  0  0  0  0  0  0  0  0
   -9.4612   -4.0396    0.0000 C   0  0  0  0  0  0  0  0  0  0  0  0
   -9.7730   -5.5068    0.0000 N   0  0  0  0  0  0  0  0  0  0  0  0
  -11.1996   -5.9703    0.0000 C   0  0  0  0  0  0  0  0  0  0  0  0
   -8.6583   -6.5105    0.0000 C   0  0  0  0  0  0  0  0  0  0  0  0
   -8.9702   -7.9777    0.0000 O   0  0  0  0  0  0  0  0  0  0  0  0
   -7.2317   -6.0469    0.0000 C   0  0  0  0  0  0  0  0  0  0  0  0
   -6.9199   -4.5797    0.0000 C   0  0  0  0  0  0  0  0  0  0  0  0
   -5.4933   -4.1162    0.0000 C   0  0  0  0  0  0  0  0  0  0  0  0
   -4.3786   -5.1199    0.0000 C   0  0  0  0  0  0  0  0  0  0  0  0
   -2.9520   -4.6564    0.0000 C   0  0  0  0  0  0  0  0  0  0  0  0
   -1.8373   -5.6601    0.0000 O   0  0  0  0  0  0  0  0  0  0  0  0
   -2.6401   -3.1891    0.0000 N   0  0  0  0  0  0  0  0  0  0  0  0
   -1.2135   -2.7256    0.0000 C   0  0  0  0  0  0  0  0  0  0  0  0
   -0.0000   -3.6073    0.0000 N   0  0  0  0  0  0  0  0  0  0  0  0
    1.2135   -2.7256    0.0000 N   0  0  0  0  0  0  0  0  0  0  0  0
    0.7500   -1.2990    0.0000 C   0  0  0  0  0  0  0  0  0  0  0  0
    1.5000    0.0000    0.0000 C   0  0  0  0  0  0  0  0  0  0  0  0
    0.7500    1.2990    0.0000 C   0  0  0  0  0  0  0  0  0  0  0  0
   -0.7500    1.2990    0.0000 C   0  0  0  0  0  0  0  0  0  0  0  0
   -1.5000    2.5981    0.0000 C   0  0  0  0  0  0  0  0  0  0  0  0
   -0.7500    3.8971    0.0000 C   0  0  0  0  0  0  0  0  0  0  0  0
    0.7500    3.8971    0.0000 C   0  0  0  0  0  0  0  0  0  0  0  0
    1.5000    5.1962    0.0000 C   0  0  0  0  0  0  0  0  0  0  0  0
    3.0000    5.1962    0.0000 F   0  0  0  0  0  0  0  0  0  0  0  0
    0.7500    6.4952    0.0000 C   0  0  0  0  0  0  0  0  0  0  0  0
   -0.7500    6.4952    0.0000 C   0  0  0  0  0  0  0  0  0  0  0  0
   -1.5000    7.7942    0.0000 F   0  0  0  0  0  0  0  0  0  0  0  0
   -1.5000    5.1962    0.0000 C   0  0  0  0  0  0  0  0  0  0  0  0
   -1.5000    0.0000    0.0000 C   0  0  0  0  0  0  0  0  0  0  0  0
   -0.7500   -1.2990    0.0000 C   0  0  0  0  0  0  0  0  0  0  0  0
   -4.6904   -6.5871    0.0000 C   0  0  0  0  0  0  0  0  0  0  0  0
   -3.5757   -7.5908    0.0000 N   0  0  0  0  0  0  0  0  0  0  0  0
   -3.8876   -9.0580    0.0000 C   0  0  0  0  0  0  0  0  0  0  0  0
   -5.3142   -9.5216    0.0000 C   0  0  0  0  0  0  0  0  0  0  0  0
   -5.6260  -10.9888    0.0000 C   0  0  0  0  0  0  0  0  0  0  0  0
   -4.5113  -11.9925    0.0000 O   0  0  0  0  0  0  0  0  0  0  0  0
   -3.0847  -11.5290    0.0000 C   0  0  0  0  0  0  0  0  0  0  0  0
   -2.7729  -10.0617    0.0000 C   0  0  0  0  0  0  0  0  0  0  0  0
   -6.1170   -7.0506    0.0000 C   0  0  0  0  0  0  0  0  0  0  0  0
  1  2  1  0
  2  3  1  0
  2  4  1  0
  4  5  1  0
  5  6  1  0
  6  7  1  0
  6  8  1  0
  8  9  2  0
  8 10  1  0
 10 11  2  0
 11 12  1  0
 12 13  2  0
 13 14  1  0
 14 15  2  0
 14 16  1  0
 16 17  1  0
 17 18  2  0
 18 19  1  0
 19 20  1  0
 20 21  2  0
 21 22  1  0
 22 23  2  0
 23 24  1  0
 24 25  1  0
 25 26  2  0
 26 27  1  0
 27 28  1  0
 27 29  2  0
 29 30  1  0
 30 31  1  0
 30 32  2  0
 23 33  1  0
 33 34  2  0
 13 35  1  0
 35 36  1  0
 36 37  1  0
 37 38  1  0
 38 39  1  0
 39 40  1  0
 40 41  1  0
 41 42  1  0
 35 43  2  0
 43 10  1  0
 34 17  1  0
 42 37  1  0
 34 20  1  0
 32 25  1  0
M  END
>  <Compound_ID>  (419) 
CHEMBL3805741

>  <Molecule Name>  (419) 
nan

>  <Molecular Weight>  (419) 
590.68

>  <AlogP>  (419) 
4.91

>  <Smiles>  (419) 
CN(C)CCN(C)C(=O)c1ccc(C(=O)Nc2n[nH]c3ccc(Cc4cc(F)cc(F)c4)cc23)c(NC2CCOCC2)c1

>  <Standard Type>  (419) 
IC50

>  <Standard Relation>  (419) 
'='

>  <Standard Units>  (419) 
nM

>  <Standard Value>  (419) 
15.0

>  <Assay ChEMBL ID>  (419) 
CHEMBL3806916

>  <Assay Description>  (419) 
Inhibition of recombinant ALK (unknown origin) in presence of gamma33-ATP

>  <BAO Format ID>  (419) 
BAO_0000357

>  <BAO Label>  (419) 
single protein format

>  <Assay Organism>  (419) 
Homo sapiens

>  <Target ChEMBL ID>  (419) 
CHEMBL4247

>  <Target Name>  (419) 
ALK tyrosine kinase receptor

>  <Target Organism>  (419) 
Homo sapiens

>  <Target Type>  (419) 
SINGLE PROTEIN

>  <Document ChEMBL ID>  (419) 
CHEMBL3804811

>  <Source Description>  (419) 
Scientific Literature

>  <Document Journal>  (419) 
J Med Chem

>  <Document Year>  (419) 
2016.0

>  <Active>  (419) 
1.0

>  <bits>  (419) 
<rdkit.DataStructs.cDataStructs.ExplicitBitVect object at 0x000002422F231070>

>  <Group>  (419) 
G2

$$$$

     RDKit          2D

 38 42  0  0  0  0  0  0  0  0999 V2000
    3.7500   -1.2990    0.0000 C   0  0  0  0  0  0  0  0  0  0  0  0
    3.0000    0.0000    0.0000 O   0  0  0  0  0  0  0  0  0  0  0  0
    1.5000    0.0000    0.0000 C   0  0  0  0  0  0  0  0  0  0  0  0
    0.7500   -1.2990    0.0000 C   0  0  0  0  0  0  0  0  0  0  0  0
   -0.7500   -1.2990    0.0000 C   0  0  0  0  0  0  0  0  0  0  0  0
   -1.5000   -2.5981    0.0000 N   0  0  0  0  0  0  0  0  0  0  0  0
   -3.0000   -2.5981    0.0000 C   0  0  0  0  0  0  0  0  0  0  0  0
   -3.7500   -3.8971    0.0000 C   0  0  0  0  0  0  0  0  0  0  0  0
   -3.0000   -5.1962    0.0000 C   0  0  0  0  0  0  0  0  0  0  0  0
   -3.7500   -6.4952    0.0000 N   0  0  0  0  0  0  0  0  0  0  0  0
   -5.2500   -6.4952    0.0000 C   0  0  0  0  0  0  0  0  0  0  0  0
   -6.0000   -7.7942    0.0000 C   0  0  0  0  0  0  0  0  0  0  0  0
   -5.2500   -9.0933    0.0000 N   0  0  0  0  0  0  0  0  0  0  0  0
   -6.0000  -10.3923    0.0000 C   0  0  0  0  0  0  0  0  0  0  0  0
   -3.7500   -9.0933    0.0000 C   0  0  0  0  0  0  0  0  0  0  0  0
   -3.0000   -7.7942    0.0000 C   0  0  0  0  0  0  0  0  0  0  0  0
   -1.5000   -5.1962    0.0000 C   0  0  0  0  0  0  0  0  0  0  0  0
   -0.7500   -3.8971    0.0000 C   0  0  0  0  0  0  0  0  0  0  0  0
   -1.5000    0.0000    0.0000 C   0  0  0  0  0  0  0  0  0  0  0  0
   -0.7500    1.2990    0.0000 C   0  0  0  0  0  0  0  0  0  0  0  0
    0.7500    1.2990    0.0000 C   0  0  0  0  0  0  0  0  0  0  0  0
    1.5000    2.5981    0.0000 N   0  0  0  0  0  0  0  0  0  0  0  0
    3.0000    2.5981    0.0000 C   0  0  0  0  0  0  0  0  0  0  0  0
    3.7500    1.2990    0.0000 N   0  0  0  0  0  0  0  0  0  0  0  0
    5.2500    1.2990    0.0000 C   0  0  0  0  0  0  0  0  0  0  0  0
    6.0000    2.5981    0.0000 C   0  0  0  0  0  0  0  0  0  0  0  0
    7.5000    2.5981    0.0000 Cl  0  0  0  0  0  0  0  0  0  0  0  0
    5.2500    3.8971    0.0000 C   0  0  0  0  0  0  0  0  0  0  0  0
    6.0000    5.1962    0.0000 N   0  0  0  0  0  0  0  0  0  0  0  0
    5.2500    6.4952    0.0000 C   0  0  0  0  0  0  0  0  0  0  0  0
    6.0000    7.7942    0.0000 C   0  0  0  0  0  0  0  0  0  0  0  0
    5.2500    9.0933    0.0000 C   0  0  0  0  0  0  0  0  0  0  0  0
    3.7500    9.0933    0.0000 C   0  0  0  0  0  0  0  0  0  0  0  0
    3.0000    7.7942    0.0000 C   0  0  0  0  0  0  0  0  0  0  0  0
    3.7500    6.4952    0.0000 C   0  0  0  0  0  0  0  0  0  0  0  0
    3.0000    5.1962    0.0000 C   0  0  0  0  0  0  0  0  0  0  0  0
    2.2500    3.8971    0.0000 N   0  0  0  0  0  0  0  0  0  0  0  0
    3.7500    3.8971    0.0000 N   0  0  0  0  0  0  0  0  0  0  0  0
  1  2  1  0
  2  3  1  0
  3  4  2  0
  4  5  1  0
  5  6  1  0
  6  7  1  0
  7  8  1  0
  8  9  1  0
  9 10  1  0
 10 11  1  0
 11 12  1  0
 12 13  1  0
 13 14  1  0
 13 15  1  0
 15 16  1  0
  9 17  1  0
 17 18  1  0
  5 19  2  0
 19 20  1  0
 20 21  2  0
 21 22  1  0
 22 23  1  0
 23 24  2  0
 24 25  1  0
 25 26  2  0
 26 27  1  0
 26 28  1  0
 28 29  1  0
 29 30  1  0
 30 31  2  0
 31 32  1  0
 32 33  2  0
 33 34  1  0
 34 35  2  0
 35 36  1  0
 36 37  3  0
 28 38  2  0
 21  3  1  0
 38 23  1  0
 18  6  1  0
 35 30  1  0
 16 10  1  0
M  END
>  <Compound_ID>  (420) 
CHEMBL3823864

>  <Molecule Name>  (420) 
nan

>  <Molecular Weight>  (420) 
533.08

>  <AlogP>  (420) 
4.71

>  <Smiles>  (420) 
COc1cc(N2CCC(N3CCN(C)CC3)CC2)ccc1Nc1ncc(Cl)c(Nc2ccccc2C#N)n1

>  <Standard Type>  (420) 
IC50

>  <Standard Relation>  (420) 
'='

>  <Standard Units>  (420) 
nM

>  <Standard Value>  (420) 
1.86

>  <Assay ChEMBL ID>  (420) 
CHEMBL3824709

>  <Assay Description>  (420) 
Inhibition of human ALK using poly[Glu:Tyr] (4:1) as substrate and [gamma-33P]ATP measured after 1 hr

>  <BAO Format ID>  (420) 
BAO_0000357

>  <BAO Label>  (420) 
single protein format

>  <Assay Organism>  (420) 
Homo sapiens

>  <Target ChEMBL ID>  (420) 
CHEMBL4247

>  <Target Name>  (420) 
ALK tyrosine kinase receptor

>  <Target Organism>  (420) 
Homo sapiens

>  <Target Type>  (420) 
SINGLE PROTEIN

>  <Document ChEMBL ID>  (420) 
CHEMBL3822358

>  <Source Description>  (420) 
Scientific Literature

>  <Document Journal>  (420) 
J Med Chem

>  <Document Year>  (420) 
2016.0

>  <Active>  (420) 
1.0

>  <bits>  (420) 
<rdkit.DataStructs.cDataStructs.ExplicitBitVect object at 0x000002422F232490>

>  <Group>  (420) 
G2

$$$$

     RDKit          2D

 34 37  0  0  0  0  0  0  0  0999 V2000
    3.7500   -1.2990    0.0000 C   0  0  0  0  0  0  0  0  0  0  0  0
    3.0000    0.0000    0.0000 O   0  0  0  0  0  0  0  0  0  0  0  0
    1.5000    0.0000    0.0000 C   0  0  0  0  0  0  0  0  0  0  0  0
    0.7500   -1.2990    0.0000 C   0  0  0  0  0  0  0  0  0  0  0  0
   -0.7500   -1.2990    0.0000 C   0  0  0  0  0  0  0  0  0  0  0  0
   -1.5000   -2.5981    0.0000 O   0  0  0  0  0  0  0  0  0  0  0  0
   -3.0000   -2.5981    0.0000 C   0  0  0  0  0  0  0  0  0  0  0  0
   -3.8817   -3.8116    0.0000 C   0  0  0  0  0  0  0  0  0  0  0  0
   -5.3083   -3.3481    0.0000 C   0  0  0  0  0  0  0  0  0  0  0  0
   -5.3083   -1.8481    0.0000 N   0  0  0  0  0  0  0  0  0  0  0  0
   -6.5218   -0.9664    0.0000 C   0  0  0  0  0  0  0  0  0  0  0  0
   -3.8817   -1.3846    0.0000 C   0  0  0  0  0  0  0  0  0  0  0  0
   -1.5000    0.0000    0.0000 C   0  0  0  0  0  0  0  0  0  0  0  0
   -0.7500    1.2990    0.0000 C   0  0  0  0  0  0  0  0  0  0  0  0
    0.7500    1.2990    0.0000 C   0  0  0  0  0  0  0  0  0  0  0  0
    1.5000    2.5981    0.0000 N   0  0  0  0  0  0  0  0  0  0  0  0
    3.0000    2.5981    0.0000 C   0  0  0  0  0  0  0  0  0  0  0  0
    3.7500    1.2990    0.0000 N   0  0  0  0  0  0  0  0  0  0  0  0
    5.2500    1.2990    0.0000 C   0  0  0  0  0  0  0  0  0  0  0  0
    6.0000    2.5981    0.0000 C   0  0  0  0  0  0  0  0  0  0  0  0
    7.5000    2.5981    0.0000 Cl  0  0  0  0  0  0  0  0  0  0  0  0
    5.2500    3.8971    0.0000 C   0  0  0  0  0  0  0  0  0  0  0  0
    6.0000    5.1962    0.0000 N   0  0  0  0  0  0  0  0  0  0  0  0
    5.2500    6.4952    0.0000 C   0  0  0  0  0  0  0  0  0  0  0  0
    3.7500    6.4952    0.0000 C   0  0  0  0  0  0  0  0  0  0  0  0
    3.0000    7.7942    0.0000 C   0  0  0  0  0  0  0  0  0  0  0  0
    3.7500    9.0933    0.0000 C   0  0  0  0  0  0  0  0  0  0  0  0
    5.2500    9.0933    0.0000 C   0  0  0  0  0  0  0  0  0  0  0  0
    6.0000    7.7942    0.0000 C   0  0  0  0  0  0  0  0  0  0  0  0
    7.5000    7.7942    0.0000 P   0  0  0  0  0  0  0  0  0  0  0  0
    7.5000    6.2942    0.0000 C   0  0  0  0  0  0  0  0  0  0  0  0
    7.5000    9.2942    0.0000 C   0  0  0  0  0  0  0  0  0  0  0  0
    9.0000    7.7942    0.0000 O   0  0  0  0  0  0  0  0  0  0  0  0
    3.7500    3.8971    0.0000 N   0  0  0  0  0  0  0  0  0  0  0  0
  1  2  1  0
  2  3  1  0
  3  4  2  0
  4  5  1  0
  5  6  1  0
  6  7  1  0
  7  8  1  0
  8  9  1  0
  9 10  1  0
 10 11  1  0
 10 12  1  0
  5 13  2  0
 13 14  1  0
 14 15  2  0
 15 16  1  0
 16 17  1  0
 17 18  2  0
 18 19  1  0
 19 20  2  0
 20 21  1  0
 20 22  1  0
 22 23  1  0
 23 24  1  0
 24 25  2  0
 25 26  1  0
 26 27  2  0
 27 28  1  0
 28 29  2  0
 29 30  1  0
 30 31  1  0
 30 32  1  0
 30 33  2  0
 22 34  2  0
 15  3  1  0
 34 17  1  0
 12  7  1  0
 29 24  1  0
M  END
>  <Compound_ID>  (421) 
CHEMBL3823603

>  <Molecule Name>  (421) 
nan

>  <Molecular Weight>  (421) 
501.96

>  <AlogP>  (421) 
4.96

>  <Smiles>  (421) 
COc1cc(OC2CCN(C)C2)ccc1Nc1ncc(Cl)c(Nc2ccccc2P(C)(C)=O)n1

>  <Standard Type>  (421) 
IC50

>  <Standard Relation>  (421) 
'='

>  <Standard Units>  (421) 
nM

>  <Standard Value>  (421) 
0.33

>  <Assay ChEMBL ID>  (421) 
CHEMBL3824709

>  <Assay Description>  (421) 
Inhibition of human ALK using poly[Glu:Tyr] (4:1) as substrate and [gamma-33P]ATP measured after 1 hr

>  <BAO Format ID>  (421) 
BAO_0000357

>  <BAO Label>  (421) 
single protein format

>  <Assay Organism>  (421) 
Homo sapiens

>  <Target ChEMBL ID>  (421) 
CHEMBL4247

>  <Target Name>  (421) 
ALK tyrosine kinase receptor

>  <Target Organism>  (421) 
Homo sapiens

>  <Target Type>  (421) 
SINGLE PROTEIN

>  <Document ChEMBL ID>  (421) 
CHEMBL3822358

>  <Source Description>  (421) 
Scientific Literature

>  <Document Journal>  (421) 
J Med Chem

>  <Document Year>  (421) 
2016.0

>  <Active>  (421) 
1.0

>  <bits>  (421) 
<rdkit.DataStructs.cDataStructs.ExplicitBitVect object at 0x000002422F231150>

>  <Group>  (421) 
G2

$$$$

     RDKit          2D

 48 52  0  0  0  0  0  0  0  0999 V2000
    6.0000   -2.5981    0.0000 C   0  0  0  0  0  0  0  0  0  0  0  0
    5.2500   -1.2990    0.0000 C   0  0  0  0  0  0  0  0  0  0  0  0
    3.7500   -1.2990    0.0000 N   0  0  0  0  0  0  0  0  0  0  0  0
    3.0000    0.0000    0.0000 C   0  0  0  0  0  0  0  0  0  0  0  0
    3.7500    1.2990    0.0000 O   0  0  0  0  0  0  0  0  0  0  0  0
    1.5000    0.0000    0.0000 N   0  0  0  0  0  0  0  0  0  0  0  0
    0.7500   -1.2990    0.0000 C   0  0  0  0  0  0  0  0  0  0  0  0
   -0.7500   -1.2990    0.0000 C   0  0  0  0  0  0  0  0  0  0  0  0
   -1.5000    0.0000    0.0000 N   0  0  0  0  0  0  0  0  0  0  0  0
   -3.0000    0.0000    0.0000 C   0  0  0  0  0  0  0  0  0  0  0  0
   -3.7500    1.2990    0.0000 C   0  0  0  0  0  0  0  0  0  0  0  0
   -5.2500    1.2990    0.0000 C   0  0  0  0  0  0  0  0  0  0  0  0
   -6.0000    0.0000    0.0000 C   0  0  0  0  0  0  0  0  0  0  0  0
   -7.5000    0.0000    0.0000 N   0  0  0  0  0  0  0  0  0  0  0  0
   -8.2500    1.2990    0.0000 C   0  0  0  0  0  0  0  0  0  0  0  0
   -7.5000    2.5981    0.0000 N   0  0  0  0  0  0  0  0  0  0  0  0
   -8.2500    3.8971    0.0000 C   0  0  0  0  0  0  0  0  0  0  0  0
   -9.7500    3.8971    0.0000 C   0  0  0  0  0  0  0  0  0  0  0  0
  -10.5000    5.1962    0.0000 C   0  0  0  0  0  0  0  0  0  0  0  0
  -11.2500    6.4952    0.0000 F   0  0  0  0  0  0  0  0  0  0  0  0
   -9.2010    5.9462    0.0000 F   0  0  0  0  0  0  0  0  0  0  0  0
  -11.7990    4.4462    0.0000 F   0  0  0  0  0  0  0  0  0  0  0  0
  -10.5000    2.5981    0.0000 C   0  0  0  0  0  0  0  0  0  0  0  0
  -12.0000    2.5981    0.0000 N   0  0  0  0  0  0  0  0  0  0  0  0
  -12.7500    1.2990    0.0000 C   0  0  0  0  0  0  0  0  0  0  0  0
  -14.2500    1.2990    0.0000 C   0  0  0  0  0  0  0  0  0  0  0  0
  -15.0000   -0.0000    0.0000 C   0  0  0  0  0  0  0  0  0  0  0  0
  -14.2500   -1.2990    0.0000 C   0  0  0  0  0  0  0  0  0  0  0  0
  -15.0000   -2.5981    0.0000 N   0  0  0  0  0  0  0  0  0  0  0  0
  -16.5000   -2.5981    0.0000 C   0  0  0  0  0  0  0  0  0  0  0  0
  -17.2500   -3.8971    0.0000 C   0  0  0  0  0  0  0  0  0  0  0  0
  -16.5000   -5.1962    0.0000 N   0  0  0  0  0  0  0  0  0  0  0  0
  -17.2500   -6.4952    0.0000 C   0  0  0  0  0  0  0  0  0  0  0  0
  -18.7500   -6.4952    0.0000 C   0  0  0  0  0  0  0  0  0  0  0  0
  -16.5000   -7.7942    0.0000 O   0  0  0  0  0  0  0  0  0  0  0  0
  -15.0000   -5.1962    0.0000 C   0  0  0  0  0  0  0  0  0  0  0  0
  -14.2500   -3.8971    0.0000 C   0  0  0  0  0  0  0  0  0  0  0  0
  -12.7500   -1.2990    0.0000 C   0  0  0  0  0  0  0  0  0  0  0  0
  -12.0000   -0.0000    0.0000 C   0  0  0  0  0  0  0  0  0  0  0  0
  -10.5000   -0.0000    0.0000 O   0  0  0  0  0  0  0  0  0  0  0  0
   -9.7500   -1.2990    0.0000 C   0  0  0  0  0  0  0  0  0  0  0  0
   -9.7500    1.2990    0.0000 N   0  0  0  0  0  0  0  0  0  0  0  0
   -5.2500   -1.2990    0.0000 C   0  0  0  0  0  0  0  0  0  0  0  0
   -6.0000   -2.5981    0.0000 O   0  0  0  0  0  0  0  0  0  0  0  0
   -5.2500   -3.8971    0.0000 C   0  0  0  0  0  0  0  0  0  0  0  0
   -3.7500   -1.2990    0.0000 C   0  0  0  0  0  0  0  0  0  0  0  0
   -0.7500    1.2990    0.0000 C   0  0  0  0  0  0  0  0  0  0  0  0
    0.7500    1.2990    0.0000 C   0  0  0  0  0  0  0  0  0  0  0  0
  1  2  1  0
  2  3  1  0
  3  4  1  0
  4  5  2  0
  4  6  1  0
  6  7  1  0
  7  8  1  0
  8  9  1  0
  9 10  1  0
 10 11  2  0
 11 12  1  0
 12 13  2  0
 13 14  1  0
 14 15  1  0
 15 16  2  0
 16 17  1  0
 17 18  2  0
 18 19  1  0
 19 20  1  0
 19 21  1  0
 19 22  1  0
 18 23  1  0
 23 24  1  0
 24 25  1  0
 25 26  2  0
 26 27  1  0
 27 28  2  0
 28 29  1  0
 29 30  1  0
 30 31  1  0
 31 32  1  0
 32 33  1  0
 33 34  1  0
 33 35  2  0
 32 36  1  0
 36 37  1  0
 28 38  1  0
 38 39  2  0
 39 40  1  0
 40 41  1  0
 23 42  2  0
 13 43  1  0
 43 44  1  0
 44 45  1  0
 43 46  2  0
  9 47  1  0
 47 48  1  0
 48  6  1  0
 46 10  1  0
 42 15  1  0
 39 25  1  0
 37 29  1  0
M  END
>  <Compound_ID>  (422) 
CHEMBL3944539

>  <Molecule Name>  (422) 
nan

>  <Molecular Weight>  (422) 
671.73

>  <AlogP>  (422) 
4.52

>  <Smiles>  (422) 
CCNC(=O)N1CCN(c2ccc(Nc3ncc(C(F)(F)F)c(Nc4ccc(N5CCN(C(C)=O)CC5)cc4OC)n3)c(OC)c2)CC1

>  <Standard Type>  (422) 
IC50

>  <Standard Relation>  (422) 
'='

>  <Standard Units>  (422) 
nM

>  <Standard Value>  (422) 
6.0

>  <Assay ChEMBL ID>  (422) 
CHEMBL3887132

>  <Assay Description>  (422) 
Homogeneous Time-resolved fluorescence (HTRF) Assay: In order to measure the inhibitory activity against ALK, a Grainer 96-well round type bottom plate was added with the compounds (2 μl) prepared in Examples 1 to 89, and mixed with ALK enzyme (1 ul) and a peptide substrate (2 μl) with biotin attached thereto for 15 minutes and cultured thereafter. Here, ATP solution (5 μl) was added thereto and kinase reaction was performed at room temperature for 30 minutes. XL 665 (5 μl), to which Streptavidin dissolved in ethylenediaminetetraacetic acid solution was attached, anti-phosphotyrosine antibody (5 μl), to which europium (Eu3+) was attached, were added to a reaction solution to stop the reaction, cultured for 1 hour, and analyzed using Homogeneous Time-resolved fluorescence (HTRF, Cisbio). The result was read by a Wallac Envision 2103 device at the wavelength range of 615/665 nm.

>  <BAO Format ID>  (422) 
BAO_0000357

>  <BAO Label>  (422) 
single protein format

>  <Assay Organism>  (422) 
Homo sapiens

>  <Target ChEMBL ID>  (422) 
CHEMBL4247

>  <Target Name>  (422) 
ALK tyrosine kinase receptor

>  <Target Organism>  (422) 
Homo sapiens

>  <Target Type>  (422) 
SINGLE PROTEIN

>  <Document ChEMBL ID>  (422) 
CHEMBL3886178

>  <Source Description>  (422) 
BindingDB Database

>  <Document Journal>  (422) 
nan

>  <Document Year>  (422) 
2015.0

>  <Active>  (422) 
1.0

>  <bits>  (422) 
<rdkit.DataStructs.cDataStructs.ExplicitBitVect object at 0x000002422F231000>

>  <Group>  (422) 
G2

$$$$

     RDKit          2D

 40 45  0  0  0  0  0  0  0  0999 V2000
   -1.8373   -5.6601    0.0000 O   0  0  0  0  0  0  0  0  0  0  0  0
   -2.9520   -4.6564    0.0000 C   0  0  0  0  0  0  0  0  0  0  0  0
   -2.6401   -3.1891    0.0000 N   0  0  0  0  0  0  0  0  0  0  0  0
   -1.2135   -2.7256    0.0000 C   0  0  0  0  0  0  0  0  0  0  0  0
   -0.0000   -3.6073    0.0000 N   0  0  0  0  0  0  0  0  0  0  0  0
    1.2135   -2.7256    0.0000 N   0  0  0  0  0  0  0  0  0  0  0  0
    0.7500   -1.2990    0.0000 C   0  0  0  0  0  0  0  0  0  0  0  0
    1.5000    0.0000    0.0000 C   0  0  0  0  0  0  0  0  0  0  0  0
    0.7500    1.2990    0.0000 C   0  0  0  0  0  0  0  0  0  0  0  0
   -0.7500    1.2990    0.0000 C   0  0  0  0  0  0  0  0  0  0  0  0
   -1.5000    2.5981    0.0000 C   0  0  0  0  0  0  0  0  0  0  0  0
   -0.7500    3.8971    0.0000 C   0  0  0  0  0  0  0  0  0  0  0  0
    0.7500    3.8971    0.0000 C   0  0  0  0  0  0  0  0  0  0  0  0
    1.5000    5.1962    0.0000 C   0  0  0  0  0  0  0  0  0  0  0  0
    3.0000    5.1962    0.0000 F   0  0  0  0  0  0  0  0  0  0  0  0
    0.7500    6.4952    0.0000 C   0  0  0  0  0  0  0  0  0  0  0  0
   -0.7500    6.4952    0.0000 C   0  0  0  0  0  0  0  0  0  0  0  0
   -1.5000    7.7942    0.0000 F   0  0  0  0  0  0  0  0  0  0  0  0
   -1.5000    5.1962    0.0000 C   0  0  0  0  0  0  0  0  0  0  0  0
   -1.5000    0.0000    0.0000 C   0  0  0  0  0  0  0  0  0  0  0  0
   -0.7500   -1.2990    0.0000 C   0  0  0  0  0  0  0  0  0  0  0  0
   -4.3786   -5.1199    0.0000 C   0  0  0  0  0  0  0  0  0  0  0  0
   -5.4933   -4.1162    0.0000 C   0  0  0  0  0  0  0  0  0  0  0  0
   -6.9199   -4.5797    0.0000 C   0  0  0  0  0  0  0  0  0  0  0  0
   -7.2317   -6.0469    0.0000 C   0  0  0  0  0  0  0  0  0  0  0  0
   -8.6583   -6.5105    0.0000 N   0  0  0  0  0  0  0  0  0  0  0  0
   -9.7730   -5.5068    0.0000 C   0  0  0  0  0  0  0  0  0  0  0  0
  -11.1996   -5.9703    0.0000 C   0  0  0  0  0  0  0  0  0  0  0  0
  -11.5115   -7.4375    0.0000 N   0  0  0  0  0  0  0  0  0  0  0  0
  -10.3968   -8.4412    0.0000 C   0  0  0  0  0  0  0  0  0  0  0  0
   -8.9702   -7.9777    0.0000 C   0  0  0  0  0  0  0  0  0  0  0  0
   -6.1170   -7.0506    0.0000 C   0  0  0  0  0  0  0  0  0  0  0  0
   -4.6904   -6.5871    0.0000 C   0  0  0  0  0  0  0  0  0  0  0  0
   -3.5757   -7.5908    0.0000 N   0  0  0  0  0  0  0  0  0  0  0  0
   -3.8876   -9.0580    0.0000 C   0  0  0  0  0  0  0  0  0  0  0  0
   -5.3142   -9.5216    0.0000 C   0  0  0  0  0  0  0  0  0  0  0  0
   -5.6260  -10.9888    0.0000 C   0  0  0  0  0  0  0  0  0  0  0  0
   -4.5113  -11.9925    0.0000 O   0  0  0  0  0  0  0  0  0  0  0  0
   -3.0847  -11.5290    0.0000 C   0  0  0  0  0  0  0  0  0  0  0  0
   -2.7729  -10.0617    0.0000 C   0  0  0  0  0  0  0  0  0  0  0  0
  1  2  2  0
  2  3  1  0
  3  4  1  0
  4  5  2  0
  5  6  1  0
  6  7  1  0
  7  8  2  0
  8  9  1  0
  9 10  2  0
 10 11  1  0
 11 12  1  0
 12 13  2  0
 13 14  1  0
 14 15  1  0
 14 16  2  0
 16 17  1  0
 17 18  1  0
 17 19  2  0
 10 20  1  0
 20 21  2  0
  2 22  1  0
 22 23  2  0
 23 24  1  0
 24 25  2  0
 25 26  1  0
 26 27  1  0
 27 28  1  0
 28 29  1  0
 29 30  1  0
 30 31  1  0
 25 32  1  0
 32 33  2  0
 33 34  1  0
 34 35  1  0
 35 36  1  0
 36 37  1  0
 37 38  1  0
 38 39  1  0
 39 40  1  0
 21  4  1  0
 33 22  1  0
 40 35  1  0
 21  7  1  0
 31 26  1  0
 19 12  1  0
M  END
>  <Compound_ID>  (423) 
CHEMBL3805643

>  <Molecule Name>  (423) 
nan

>  <Molecular Weight>  (423) 
546.62

>  <AlogP>  (423) 
4.68

>  <Smiles>  (423) 
O=C(Nc1n[nH]c2ccc(Cc3cc(F)cc(F)c3)cc12)c1ccc(N2CCNCC2)cc1NC1CCOCC1

>  <Standard Type>  (423) 
IC50

>  <Standard Relation>  (423) 
'='

>  <Standard Units>  (423) 
nM

>  <Standard Value>  (423) 
3.0

>  <Assay ChEMBL ID>  (423) 
CHEMBL3806916

>  <Assay Description>  (423) 
Inhibition of recombinant ALK (unknown origin) in presence of gamma33-ATP

>  <BAO Format ID>  (423) 
BAO_0000357

>  <BAO Label>  (423) 
single protein format

>  <Assay Organism>  (423) 
Homo sapiens

>  <Target ChEMBL ID>  (423) 
CHEMBL4247

>  <Target Name>  (423) 
ALK tyrosine kinase receptor

>  <Target Organism>  (423) 
Homo sapiens

>  <Target Type>  (423) 
SINGLE PROTEIN

>  <Document ChEMBL ID>  (423) 
CHEMBL3804811

>  <Source Description>  (423) 
Scientific Literature

>  <Document Journal>  (423) 
J Med Chem

>  <Document Year>  (423) 
2016.0

>  <Active>  (423) 
1.0

>  <bits>  (423) 
<rdkit.DataStructs.cDataStructs.ExplicitBitVect object at 0x000002422F230270>

>  <Group>  (423) 
G2

$$$$

     RDKit          2D

 29 31  0  0  0  0  0  0  0  0999 V2000
    3.7500   -1.2990    0.0000 C   0  0  0  0  0  0  0  0  0  0  0  0
    3.0000    0.0000    0.0000 O   0  0  0  0  0  0  0  0  0  0  0  0
    1.5000    0.0000    0.0000 C   0  0  0  0  0  0  0  0  0  0  0  0
    0.7500   -1.2990    0.0000 C   0  0  0  0  0  0  0  0  0  0  0  0
   -0.7500   -1.2990    0.0000 C   0  0  0  0  0  0  0  0  0  0  0  0
   -1.5000    0.0000    0.0000 C   0  0  0  0  0  0  0  0  0  0  0  0
   -0.7500    1.2990    0.0000 C   0  0  0  0  0  0  0  0  0  0  0  0
    0.7500    1.2990    0.0000 C   0  0  0  0  0  0  0  0  0  0  0  0
    1.5000    2.5981    0.0000 N   0  0  0  0  0  0  0  0  0  0  0  0
    3.0000    2.5981    0.0000 C   0  0  0  0  0  0  0  0  0  0  0  0
    3.7500    1.2990    0.0000 N   0  0  0  0  0  0  0  0  0  0  0  0
    5.2500    1.2990    0.0000 C   0  0  0  0  0  0  0  0  0  0  0  0
    6.0000    2.5981    0.0000 C   0  0  0  0  0  0  0  0  0  0  0  0
    7.5000    2.5981    0.0000 Cl  0  0  0  0  0  0  0  0  0  0  0  0
    5.2500    3.8971    0.0000 C   0  0  0  0  0  0  0  0  0  0  0  0
    6.0000    5.1962    0.0000 N   0  0  0  0  0  0  0  0  0  0  0  0
    5.2500    6.4952    0.0000 C   0  0  0  0  0  0  0  0  0  0  0  0
    3.7500    6.4952    0.0000 C   0  0  0  0  0  0  0  0  0  0  0  0
    3.0000    7.7942    0.0000 C   0  0  0  0  0  0  0  0  0  0  0  0
    3.7500    9.0933    0.0000 C   0  0  0  0  0  0  0  0  0  0  0  0
    5.2500    9.0933    0.0000 C   0  0  0  0  0  0  0  0  0  0  0  0
    6.0000    7.7942    0.0000 C   0  0  0  0  0  0  0  0  0  0  0  0
    7.5000    7.7942    0.0000 S   0  0  0  0  0  0  0  0  0  0  0  0
    7.5000    6.2942    0.0000 O   0  0  0  0  0  0  0  0  0  0  0  0
    7.5000    9.2942    0.0000 O   0  0  0  0  0  0  0  0  0  0  0  0
    9.0000    7.7942    0.0000 C   0  0  0  0  0  0  0  0  0  0  0  0
    9.7500    9.0933    0.0000 C   0  0  0  0  0  0  0  0  0  0  0  0
    9.7500    6.4952    0.0000 C   0  0  0  0  0  0  0  0  0  0  0  0
    3.7500    3.8971    0.0000 N   0  0  0  0  0  0  0  0  0  0  0  0
  1  2  1  0
  2  3  1  0
  3  4  2  0
  4  5  1  0
  5  6  2  0
  6  7  1  0
  7  8  2  0
  8  9  1  0
  9 10  1  0
 10 11  2  0
 11 12  1  0
 12 13  2  0
 13 14  1  0
 13 15  1  0
 15 16  1  0
 16 17  1  0
 17 18  2  0
 18 19  1  0
 19 20  2  0
 20 21  1  0
 21 22  2  0
 22 23  1  0
 23 24  2  0
 23 25  2  0
 23 26  1  0
 26 27  1  0
 26 28  1  0
 15 29  2  0
  8  3  1  0
 29 10  1  0
 22 17  1  0
M  END
>  <Compound_ID>  (424) 
CHEMBL3822973

>  <Molecule Name>  (424) 
nan

>  <Molecular Weight>  (424) 
432.93

>  <AlogP>  (424) 
4.81

>  <Smiles>  (424) 
COc1ccccc1Nc1ncc(Cl)c(Nc2ccccc2S(=O)(=O)C(C)C)n1

>  <Standard Type>  (424) 
IC50

>  <Standard Relation>  (424) 
'='

>  <Standard Units>  (424) 
nM

>  <Standard Value>  (424) 
2.1

>  <Assay ChEMBL ID>  (424) 
CHEMBL3824709

>  <Assay Description>  (424) 
Inhibition of human ALK using poly[Glu:Tyr] (4:1) as substrate and [gamma-33P]ATP measured after 1 hr

>  <BAO Format ID>  (424) 
BAO_0000357

>  <BAO Label>  (424) 
single protein format

>  <Assay Organism>  (424) 
Homo sapiens

>  <Target ChEMBL ID>  (424) 
CHEMBL4247

>  <Target Name>  (424) 
ALK tyrosine kinase receptor

>  <Target Organism>  (424) 
Homo sapiens

>  <Target Type>  (424) 
SINGLE PROTEIN

>  <Document ChEMBL ID>  (424) 
CHEMBL3822358

>  <Source Description>  (424) 
Scientific Literature

>  <Document Journal>  (424) 
J Med Chem

>  <Document Year>  (424) 
2016.0

>  <Active>  (424) 
1.0

>  <bits>  (424) 
<rdkit.DataStructs.cDataStructs.ExplicitBitVect object at 0x000002422F2327A0>

>  <Group>  (424) 
G2

$$$$

     RDKit          2D

 30 32  0  0  0  0  0  0  0  0999 V2000
    3.7500   -1.2990    0.0000 C   0  0  0  0  0  0  0  0  0  0  0  0
    3.0000    0.0000    0.0000 O   0  0  0  0  0  0  0  0  0  0  0  0
    1.5000    0.0000    0.0000 C   0  0  0  0  0  0  0  0  0  0  0  0
    0.7500   -1.2990    0.0000 C   0  0  0  0  0  0  0  0  0  0  0  0
   -0.7500   -1.2990    0.0000 C   0  0  0  0  0  0  0  0  0  0  0  0
   -1.5000   -2.5981    0.0000 P   0  0  0  0  0  0  0  0  0  0  0  0
   -0.2010   -3.3481    0.0000 C   0  0  0  0  0  0  0  0  0  0  0  0
   -2.7990   -1.8481    0.0000 C   0  0  0  0  0  0  0  0  0  0  0  0
   -2.2500   -3.8971    0.0000 O   0  0  0  0  0  0  0  0  0  0  0  0
   -1.5000    0.0000    0.0000 C   0  0  0  0  0  0  0  0  0  0  0  0
   -0.7500    1.2990    0.0000 C   0  0  0  0  0  0  0  0  0  0  0  0
    0.7500    1.2990    0.0000 C   0  0  0  0  0  0  0  0  0  0  0  0
    1.5000    2.5981    0.0000 N   0  0  0  0  0  0  0  0  0  0  0  0
    3.0000    2.5981    0.0000 C   0  0  0  0  0  0  0  0  0  0  0  0
    3.7500    1.2990    0.0000 N   0  0  0  0  0  0  0  0  0  0  0  0
    5.2500    1.2990    0.0000 C   0  0  0  0  0  0  0  0  0  0  0  0
    6.0000    2.5981    0.0000 C   0  0  0  0  0  0  0  0  0  0  0  0
    7.5000    2.5981    0.0000 Cl  0  0  0  0  0  0  0  0  0  0  0  0
    5.2500    3.8971    0.0000 C   0  0  0  0  0  0  0  0  0  0  0  0
    6.0000    5.1962    0.0000 N   0  0  0  0  0  0  0  0  0  0  0  0
    5.2500    6.4952    0.0000 C   0  0  0  0  0  0  0  0  0  0  0  0
    3.7500    6.4952    0.0000 C   0  0  0  0  0  0  0  0  0  0  0  0
    3.0000    7.7942    0.0000 C   0  0  0  0  0  0  0  0  0  0  0  0
    3.7500    9.0933    0.0000 C   0  0  0  0  0  0  0  0  0  0  0  0
    5.2500    9.0933    0.0000 C   0  0  0  0  0  0  0  0  0  0  0  0
    6.0000    7.7942    0.0000 C   0  0  0  0  0  0  0  0  0  0  0  0
    7.5000    7.7942    0.0000 C   0  0  0  0  0  0  0  0  0  0  0  0
    8.2500    9.0933    0.0000 N   0  0  0  0  0  0  0  0  0  0  0  0
    8.2500    6.4952    0.0000 O   0  0  0  0  0  0  0  0  0  0  0  0
    3.7500    3.8971    0.0000 N   0  0  0  0  0  0  0  0  0  0  0  0
  1  2  1  0
  2  3  1  0
  3  4  2  0
  4  5  1  0
  5  6  1  0
  6  7  1  0
  6  8  1  0
  6  9  2  0
  5 10  2  0
 10 11  1  0
 11 12  2  0
 12 13  1  0
 13 14  1  0
 14 15  2  0
 15 16  1  0
 16 17  2  0
 17 18  1  0
 17 19  1  0
 19 20  1  0
 20 21  1  0
 21 22  2  0
 22 23  1  0
 23 24  2  0
 24 25  1  0
 25 26  2  0
 26 27  1  0
 27 28  1  0
 27 29  2  0
 19 30  2  0
 12  3  1  0
 30 14  1  0
 26 21  1  0
M  END
>  <Compound_ID>  (425) 
CHEMBL3823268

>  <Molecule Name>  (425) 
nan

>  <Molecular Weight>  (425) 
445.85

>  <AlogP>  (425) 
3.97

>  <Smiles>  (425) 
COc1cc(P(C)(C)=O)ccc1Nc1ncc(Cl)c(Nc2ccccc2C(N)=O)n1

>  <Standard Type>  (425) 
IC50

>  <Standard Relation>  (425) 
'='

>  <Standard Units>  (425) 
nM

>  <Standard Value>  (425) 
0.68

>  <Assay ChEMBL ID>  (425) 
CHEMBL3824709

>  <Assay Description>  (425) 
Inhibition of human ALK using poly[Glu:Tyr] (4:1) as substrate and [gamma-33P]ATP measured after 1 hr

>  <BAO Format ID>  (425) 
BAO_0000357

>  <BAO Label>  (425) 
single protein format

>  <Assay Organism>  (425) 
Homo sapiens

>  <Target ChEMBL ID>  (425) 
CHEMBL4247

>  <Target Name>  (425) 
ALK tyrosine kinase receptor

>  <Target Organism>  (425) 
Homo sapiens

>  <Target Type>  (425) 
SINGLE PROTEIN

>  <Document ChEMBL ID>  (425) 
CHEMBL3822358

>  <Source Description>  (425) 
Scientific Literature

>  <Document Journal>  (425) 
J Med Chem

>  <Document Year>  (425) 
2016.0

>  <Active>  (425) 
1.0

>  <bits>  (425) 
<rdkit.DataStructs.cDataStructs.ExplicitBitVect object at 0x000002422F2326C0>

>  <Group>  (425) 
G2

$$$$

     RDKit          2D

 39 43  0  0  0  0  0  0  0  0999 V2000
   -2.1491   -7.1273    0.0000 C   0  0  0  0  0  0  0  0  0  0  0  0
   -1.8373   -5.6601    0.0000 O   0  0  0  0  0  0  0  0  0  0  0  0
   -2.9520   -4.6564    0.0000 C   0  0  0  0  0  0  0  0  0  0  0  0
   -4.3786   -5.1199    0.0000 N   0  0  0  0  0  0  0  0  0  0  0  0
   -5.4933   -4.1162    0.0000 C   0  0  0  0  0  0  0  0  0  0  0  0
   -6.9199   -4.5797    0.0000 C   0  0  0  0  0  0  0  0  0  0  0  0
   -5.1814   -2.6490    0.0000 C   0  0  0  0  0  0  0  0  0  0  0  0
   -3.7548   -2.1855    0.0000 C   0  0  0  0  0  0  0  0  0  0  0  0
   -2.6401   -3.1891    0.0000 C   0  0  0  0  0  0  0  0  0  0  0  0
   -1.2135   -2.7256    0.0000 C   0  0  0  0  0  0  0  0  0  0  0  0
   -0.0000   -3.6073    0.0000 C   0  0  0  0  0  0  0  0  0  0  0  0
    0.0000   -5.1073    0.0000 C   0  0  0  0  0  0  0  0  0  0  0  0
    1.2990   -5.8573    0.0000 O   0  0  0  0  0  0  0  0  0  0  0  0
    1.2135   -2.7256    0.0000 S   0  0  0  0  0  0  0  0  0  0  0  0
    0.7500   -1.2990    0.0000 C   0  0  0  0  0  0  0  0  0  0  0  0
    1.5000    0.0000    0.0000 C   0  0  0  0  0  0  0  0  0  0  0  0
    0.7500    1.2990    0.0000 N   0  0  0  0  0  0  0  0  0  0  0  0
   -0.7500    1.2990    0.0000 C   0  0  0  0  0  0  0  0  0  0  0  0
   -1.5000    2.5981    0.0000 N   0  0  0  0  0  0  0  0  0  0  0  0
   -0.7500    3.8971    0.0000 C   0  0  0  0  0  0  0  0  0  0  0  0
    0.7500    3.8971    0.0000 C   0  0  0  0  0  0  0  0  0  0  0  0
    1.5000    5.1962    0.0000 C   0  0  0  0  0  0  0  0  0  0  0  0
    3.0000    5.1962    0.0000 C   0  0  0  0  0  0  0  0  0  0  0  0
    0.7500    6.4952    0.0000 C   0  0  0  0  0  0  0  0  0  0  0  0
    1.5000    7.7942    0.0000 N   0  0  0  0  0  0  0  0  0  0  0  0
    3.0000    7.7942    0.0000 C   0  0  0  0  0  0  0  0  0  0  0  0
    3.7500    9.0933    0.0000 C   0  0  0  0  0  0  0  0  0  0  0  0
    3.0000   10.3923    0.0000 N   0  0  0  0  0  0  0  0  0  0  0  0
    3.7500   11.6913    0.0000 C   0  0  0  0  0  0  0  0  0  0  0  0
    1.5000   10.3923    0.0000 C   0  0  0  0  0  0  0  0  0  0  0  0
    0.7500    9.0933    0.0000 C   0  0  0  0  0  0  0  0  0  0  0  0
   -0.7500    6.4952    0.0000 C   0  0  0  0  0  0  0  0  0  0  0  0
   -1.5000    5.1962    0.0000 C   0  0  0  0  0  0  0  0  0  0  0  0
   -3.0000    5.1962    0.0000 O   0  0  0  0  0  0  0  0  0  0  0  0
   -3.7500    6.4952    0.0000 C   0  0  0  0  0  0  0  0  0  0  0  0
   -5.2500    6.4952    0.0000 C   0  0  0  0  0  0  0  0  0  0  0  0
   -3.0000    7.7942    0.0000 C   0  0  0  0  0  0  0  0  0  0  0  0
   -1.5000    0.0000    0.0000 N   0  0  0  0  0  0  0  0  0  0  0  0
   -0.7500   -1.2990    0.0000 C   0  0  0  0  0  0  0  0  0  0  0  0
  1  2  1  0
  2  3  1  0
  3  4  2  0
  4  5  1  0
  5  6  1  0
  5  7  2  0
  7  8  1  0
  8  9  2  0
  9 10  1  0
 10 11  2  0
 11 12  1  0
 12 13  1  0
 11 14  1  0
 14 15  1  0
 15 16  2  0
 16 17  1  0
 17 18  2  0
 18 19  1  0
 19 20  1  0
 20 21  2  0
 21 22  1  0
 22 23  1  0
 22 24  2  0
 24 25  1  0
 25 26  1  0
 26 27  1  0
 27 28  1  0
 28 29  1  0
 28 30  1  0
 30 31  1  0
 24 32  1  0
 32 33  2  0
 33 34  1  0
 34 35  1  0
 35 36  1  0
 35 37  1  0
 18 38  1  0
 38 39  2  0
  9  3  1  0
 39 10  1  0
 39 15  1  0
 33 20  1  0
 31 25  1  0
M  END
>  <Compound_ID>  (426) 
CHEMBL3928179

>  <Molecule Name>  (426) 
nan

>  <Molecular Weight>  (426) 
548.71

>  <AlogP>  (426) 
5.15

>  <Smiles>  (426) 
COc1nc(C)ccc1-c1c(CO)sc2cnc(Nc3cc(C)c(N4CCN(C)CC4)cc3OC(C)C)nc12

>  <Standard Type>  (426) 
IC50

>  <Standard Relation>  (426) 
'='

>  <Standard Units>  (426) 
nM

>  <Standard Value>  (426) 
14.0

>  <Assay ChEMBL ID>  (426) 
CHEMBL3887055

>  <Assay Description>  (426) 
In Vitro Inhibition Assay: The reagents used have the following composition: Enzyme buffer (EB): 50 mM HEPES (pH: 7.0) (Sigma H7523), 100 mM NaCl (Sigma S7653), NaN.sub.3 at 0.01% (Sigma S8032), BSA at 0.005% (Sigma A2153), 0.05 mM sodium orthovanadate (Calbiochem 567540). Detection buffer (DB): 50 mM HEPES (pH: 7.0), BSA at 0.1%, 0.8 M KF (Fluka 60239), 20 mM EDTA (Sigma E5134).The peptide used is the one described in Biochemistry, 2005, 44, 8533-8542; A-21-K(biotin)NH.sub.2, obtained from NeoMPS (reference SP081233). All the HTRF reagents Mab PT66-K (61T66KLB) and streptavidin-XL665 (610SAXLB), and the SEB reagent, are purchased from Cisbio.The test is carried out in a 384-well plate (Greiner 784076). The serial dilutions are carried out in pure DMSO, and then an intermediate one-in-three dilution in water is carried out, with 1 microliter of each concentration being distributed, all these operations being performed using the Zephyr apparatus (Caliper Life Sciences).

>  <BAO Format ID>  (426) 
BAO_0000357

>  <BAO Label>  (426) 
single protein format

>  <Assay Organism>  (426) 
None

>  <Target ChEMBL ID>  (426) 
CHEMBL4247

>  <Target Name>  (426) 
ALK tyrosine kinase receptor

>  <Target Organism>  (426) 
Homo sapiens

>  <Target Type>  (426) 
SINGLE PROTEIN

>  <Document ChEMBL ID>  (426) 
CHEMBL3639289

>  <Source Description>  (426) 
BindingDB Database

>  <Document Journal>  (426) 
nan

>  <Document Year>  (426) 
2015.0

>  <Active>  (426) 
1.0

>  <bits>  (426) 
<rdkit.DataStructs.cDataStructs.ExplicitBitVect object at 0x000002422F232880>

>  <Group>  (426) 
G2

$$$$

     RDKit          2D

 35 38  0  0  0  0  0  0  0  0999 V2000
   -1.2990   -8.3350    0.0000 C   0  0  0  0  0  0  0  0  0  0  0  0
   -1.2990   -6.8350    0.0000 C   0  0  0  0  0  0  0  0  0  0  0  0
   -0.0000   -6.0850    0.0000 C   0  0  0  0  0  0  0  0  0  0  0  0
    1.2990   -6.8350    0.0000 O   0  0  0  0  0  0  0  0  0  0  0  0
   -0.0000   -4.5850    0.0000 N   0  0  0  0  0  0  0  0  0  0  0  0
    1.3515   -3.9342    0.0000 C   0  0  0  0  0  0  0  0  0  0  0  0
    1.6852   -2.4718    0.0000 C   0  0  0  0  0  0  0  0  0  0  0  0
    0.7500   -1.2990    0.0000 C   0  0  0  0  0  0  0  0  0  0  0  0
    1.5000    0.0000    0.0000 C   0  0  0  0  0  0  0  0  0  0  0  0
    0.7500    1.2990    0.0000 C   0  0  0  0  0  0  0  0  0  0  0  0
   -0.7500    1.2990    0.0000 C   0  0  0  0  0  0  0  0  0  0  0  0
   -1.5000    2.5981    0.0000 N   0  0  0  0  0  0  0  0  0  0  0  0
   -0.7500    3.8971    0.0000 C   0  0  0  0  0  0  0  0  0  0  0  0
    0.7500    3.8971    0.0000 N   0  0  0  0  0  0  0  0  0  0  0  0
    1.5000    5.1962    0.0000 C   0  0  0  0  0  0  0  0  0  0  0  0
    0.7500    6.4952    0.0000 C   0  0  0  0  0  0  0  0  0  0  0  0
    1.5000    7.7942    0.0000 Cl  0  0  0  0  0  0  0  0  0  0  0  0
   -0.7500    6.4952    0.0000 C   0  0  0  0  0  0  0  0  0  0  0  0
   -1.5000    7.7942    0.0000 N   0  0  0  0  0  0  0  0  0  0  0  0
   -3.0000    7.7942    0.0000 C   0  0  0  0  0  0  0  0  0  0  0  0
   -3.7500    6.4952    0.0000 C   0  0  0  0  0  0  0  0  0  0  0  0
   -5.2500    6.4952    0.0000 C   0  0  0  0  0  0  0  0  0  0  0  0
   -6.0000    7.7942    0.0000 C   0  0  0  0  0  0  0  0  0  0  0  0
   -5.2500    9.0933    0.0000 C   0  0  0  0  0  0  0  0  0  0  0  0
   -3.7500    9.0933    0.0000 C   0  0  0  0  0  0  0  0  0  0  0  0
   -3.0000   10.3923    0.0000 C   0  0  0  0  0  0  0  0  0  0  0  0
   -1.5000   10.3923    0.0000 O   0  0  0  0  0  0  0  0  0  0  0  0
   -3.7500   11.6913    0.0000 N   0  0  0  0  0  0  0  0  0  0  0  0
   -3.0000   12.9904    0.0000 C   0  0  0  0  0  0  0  0  0  0  0  0
   -1.5000    5.1962    0.0000 N   0  0  0  0  0  0  0  0  0  0  0  0
   -1.5000    0.0000    0.0000 C   0  0  0  0  0  0  0  0  0  0  0  0
   -0.7500   -1.2990    0.0000 C   0  0  0  0  0  0  0  0  0  0  0  0
   -1.6852   -2.4718    0.0000 C   0  0  0  0  0  0  0  0  0  0  0  0
   -3.1476   -2.1380    0.0000 C   0  0  0  0  0  0  0  0  0  0  0  0
   -1.3515   -3.9342    0.0000 C   0  0  0  0  0  0  0  0  0  0  0  0
  1  2  1  0
  2  3  1  0
  3  4  2  0
  3  5  1  0
  5  6  1  0
  6  7  1  0
  7  8  1  0
  8  9  2  0
  9 10  1  0
 10 11  2  0
 11 12  1  0
 12 13  1  0
 13 14  2  0
 14 15  1  0
 15 16  2  0
 16 17  1  0
 16 18  1  0
 18 19  1  0
 19 20  1  0
 20 21  2  0
 21 22  1  0
 22 23  2  0
 23 24  1  0
 24 25  2  0
 25 26  1  0
 26 27  2  0
 26 28  1  0
 28 29  1  0
 18 30  2  0
 11 31  1  0
 31 32  2  0
 32 33  1  0
 33 34  1  0
 33 35  1  0
 35  5  1  0
 32  8  1  0
 30 13  1  0
 25 20  1  0
M  END
>  <Compound_ID>  (427) 
CHEMBL3263981

>  <Molecule Name>  (427) 
nan

>  <Molecular Weight>  (427) 
493.01

>  <AlogP>  (427) 
4.88

>  <Smiles>  (427) 
CCC(=O)N1CCc2ccc(Nc3ncc(Cl)c(Nc4ccccc4C(=O)NC)n3)cc2C(C)C1

>  <Standard Type>  (427) 
IC50

>  <Standard Relation>  (427) 
'='

>  <Standard Units>  (427) 
nM

>  <Standard Value>  (427) 
50.0

>  <Assay ChEMBL ID>  (427) 
CHEMBL3267806

>  <Assay Description>  (427) 
Inhibition of purified recombinant ALK (unknown origin) after 60 mins by ELISA

>  <BAO Format ID>  (427) 
BAO_0000357

>  <BAO Label>  (427) 
single protein format

>  <Assay Organism>  (427) 
Homo sapiens

>  <Target ChEMBL ID>  (427) 
CHEMBL4247

>  <Target Name>  (427) 
ALK tyrosine kinase receptor

>  <Target Organism>  (427) 
Homo sapiens

>  <Target Type>  (427) 
SINGLE PROTEIN

>  <Document ChEMBL ID>  (427) 
CHEMBL3259567

>  <Source Description>  (427) 
Scientific Literature

>  <Document Journal>  (427) 
ACS Med Chem Lett

>  <Document Year>  (427) 
2014.0

>  <Active>  (427) 
1.0

>  <bits>  (427) 
<rdkit.DataStructs.cDataStructs.ExplicitBitVect object at 0x000002422F2328F0>

>  <Group>  (427) 
G2

$$$$

     RDKit          2D

 31 34  0  0  0  0  0  0  0  0999 V2000
    3.2286   -0.0000    0.0000 C   0  0  0  0  0  0  0  0  0  0  0  0
    1.7286    0.0000    0.0000 C   0  0  0  0  0  0  0  0  0  0  0  0
    1.0777    1.3515    0.0000 C   0  0  0  0  0  0  0  0  0  0  0  0
   -0.3846    1.6852    0.0000 N   0  0  0  0  0  0  0  0  0  0  0  0
   -1.5574    0.7500    0.0000 C   0  0  0  0  0  0  0  0  0  0  0  0
   -1.5574   -0.7500    0.0000 C   0  0  0  0  0  0  0  0  0  0  0  0
   -0.3846   -1.6852    0.0000 C   0  0  0  0  0  0  0  0  0  0  0  0
   -0.8268   -3.1186    0.0000 C   0  0  0  0  0  0  0  0  0  0  0  0
    0.1935   -4.2182    0.0000 C   0  0  0  0  0  0  0  0  0  0  0  0
    1.6559   -3.8844    0.0000 C   0  0  0  0  0  0  0  0  0  0  0  0
    2.6761   -4.9840    0.0000 N   0  0  0  0  0  0  0  0  0  0  0  0
    2.2340   -6.4173    0.0000 C   0  0  0  0  0  0  0  0  0  0  0  0
    0.7716   -6.7511    0.0000 N   0  0  0  0  0  0  0  0  0  0  0  0
    0.3295   -8.1845    0.0000 C   0  0  0  0  0  0  0  0  0  0  0  0
    1.3497   -9.2840    0.0000 C   0  0  0  0  0  0  0  0  0  0  0  0
    0.9076  -10.7174    0.0000 Cl  0  0  0  0  0  0  0  0  0  0  0  0
    2.8121   -8.9503    0.0000 C   0  0  0  0  0  0  0  0  0  0  0  0
    3.8324  -10.0498    0.0000 N   0  0  0  0  0  0  0  0  0  0  0  0
    5.2948   -9.7161    0.0000 C   0  0  0  0  0  0  0  0  0  0  0  0
    5.7369   -8.2827    0.0000 C   0  0  0  0  0  0  0  0  0  0  0  0
    7.1993   -7.9489    0.0000 C   0  0  0  0  0  0  0  0  0  0  0  0
    8.2196   -9.0485    0.0000 C   0  0  0  0  0  0  0  0  0  0  0  0
    7.7774  -10.4819    0.0000 C   0  0  0  0  0  0  0  0  0  0  0  0
    6.3150  -10.8156    0.0000 C   0  0  0  0  0  0  0  0  0  0  0  0
    5.8729  -12.2490    0.0000 C   0  0  0  0  0  0  0  0  0  0  0  0
    4.4105  -12.5828    0.0000 O   0  0  0  0  0  0  0  0  0  0  0  0
    6.8932  -13.3486    0.0000 N   0  0  0  0  0  0  0  0  0  0  0  0
    6.4510  -14.7819    0.0000 C   0  0  0  0  0  0  0  0  0  0  0  0
    3.2543   -7.5169    0.0000 N   0  0  0  0  0  0  0  0  0  0  0  0
    2.0980   -2.4510    0.0000 C   0  0  0  0  0  0  0  0  0  0  0  0
    1.0777   -1.3515    0.0000 C   0  0  0  0  0  0  0  0  0  0  0  0
  1  2  2  0
  2  3  1  0
  3  4  1  0
  4  5  1  0
  5  6  1  0
  6  7  1  0
  7  8  2  0
  8  9  1  0
  9 10  2  0
 10 11  1  0
 11 12  1  0
 12 13  2  0
 13 14  1  0
 14 15  2  0
 15 16  1  0
 15 17  1  0
 17 18  1  0
 18 19  1  0
 19 20  2  0
 20 21  1  0
 21 22  2  0
 22 23  1  0
 23 24  2  0
 24 25  1  0
 25 26  2  0
 25 27  1  0
 27 28  1  0
 17 29  2  0
 10 30  1  0
 30 31  2  0
 31  2  1  0
 31  7  1  0
 29 12  1  0
 24 19  1  0
M  END
>  <Compound_ID>  (428) 
CHEMBL3263973

>  <Molecule Name>  (428) 
nan

>  <Molecular Weight>  (428) 
434.93

>  <AlogP>  (428) 
4.14

>  <Smiles>  (428) 
C=C1CNCCc2ccc(Nc3ncc(Cl)c(Nc4ccccc4C(=O)NC)n3)cc21

>  <Standard Type>  (428) 
IC50

>  <Standard Relation>  (428) 
'='

>  <Standard Units>  (428) 
nM

>  <Standard Value>  (428) 
19.0

>  <Assay ChEMBL ID>  (428) 
CHEMBL3267806

>  <Assay Description>  (428) 
Inhibition of purified recombinant ALK (unknown origin) after 60 mins by ELISA

>  <BAO Format ID>  (428) 
BAO_0000357

>  <BAO Label>  (428) 
single protein format

>  <Assay Organism>  (428) 
Homo sapiens

>  <Target ChEMBL ID>  (428) 
CHEMBL4247

>  <Target Name>  (428) 
ALK tyrosine kinase receptor

>  <Target Organism>  (428) 
Homo sapiens

>  <Target Type>  (428) 
SINGLE PROTEIN

>  <Document ChEMBL ID>  (428) 
CHEMBL3259567

>  <Source Description>  (428) 
Scientific Literature

>  <Document Journal>  (428) 
ACS Med Chem Lett

>  <Document Year>  (428) 
2014.0

>  <Active>  (428) 
1.0

>  <bits>  (428) 
<rdkit.DataStructs.cDataStructs.ExplicitBitVect object at 0x000002422F232C00>

>  <Group>  (428) 
G2

$$$$

     RDKit          2D

 29 33  0  0  0  0  0  0  0  0999 V2000
    2.6491   -3.5623    0.0000 C   0  0  0  0  0  0  0  0  0  0  0  0
    1.5000   -2.5981    0.0000 C   0  0  0  0  0  0  0  0  0  0  0  0
    2.6491   -1.6339    0.0000 C   0  0  0  0  0  0  0  0  0  0  0  0
    0.7500   -1.2990    0.0000 C   0  0  0  0  0  0  0  0  0  0  0  0
    1.5000    0.0000    0.0000 C   0  0  0  0  0  0  0  0  0  0  0  0
    0.7500    1.2990    0.0000 C   0  0  0  0  0  0  0  0  0  0  0  0
    1.5000    2.5981    0.0000 N   0  0  0  0  0  0  0  0  0  0  0  0
    3.0000    2.5981    0.0000 C   0  0  0  0  0  0  0  0  0  0  0  0
    3.7500    3.8971    0.0000 C   0  0  0  0  0  0  0  0  0  0  0  0
    3.0000    5.1962    0.0000 C   0  0  0  0  0  0  0  0  0  0  0  0
    3.7500    6.4952    0.0000 O   0  0  0  0  0  0  0  0  0  0  0  0
    1.5000    5.1962    0.0000 C   0  0  0  0  0  0  0  0  0  0  0  0
    0.7500    3.8971    0.0000 C   0  0  0  0  0  0  0  0  0  0  0  0
   -0.7500    1.2990    0.0000 C   0  0  0  0  0  0  0  0  0  0  0  0
   -1.5000    0.0000    0.0000 C   0  0  0  0  0  0  0  0  0  0  0  0
   -0.7500   -1.2990    0.0000 C   0  0  0  0  0  0  0  0  0  0  0  0
   -1.5000   -2.5981    0.0000 C   0  0  0  0  0  0  0  0  0  0  0  0
   -3.0000   -2.5981    0.0000 O   0  0  0  0  0  0  0  0  0  0  0  0
   -0.7500   -3.8971    0.0000 C   0  0  0  0  0  0  0  0  0  0  0  0
    0.7500   -3.8971    0.0000 C   0  0  0  0  0  0  0  0  0  0  0  0
    1.2135   -5.3237    0.0000 N   0  0  0  0  0  0  0  0  0  0  0  0
    0.0000   -6.2054    0.0000 C   0  0  0  0  0  0  0  0  0  0  0  0
   -0.1568   -7.6972    0.0000 C   0  0  0  0  0  0  0  0  0  0  0  0
   -1.5271   -8.3073    0.0000 C   0  0  0  0  0  0  0  0  0  0  0  0
   -1.6839   -9.7990    0.0000 C   0  0  0  0  0  0  0  0  0  0  0  0
   -1.8407  -11.2908    0.0000 N   0  0  0  0  0  0  0  0  0  0  0  0
   -2.7406   -7.4256    0.0000 C   0  0  0  0  0  0  0  0  0  0  0  0
   -2.5838   -5.9338    0.0000 C   0  0  0  0  0  0  0  0  0  0  0  0
   -1.2135   -5.3237    0.0000 C   0  0  0  0  0  0  0  0  0  0  0  0
  1  2  1  0
  2  3  1  0
  2  4  1  0
  4  5  2  0
  5  6  1  0
  6  7  1  0
  7  8  1  0
  8  9  1  0
  9 10  1  0
 10 11  1  0
 10 12  1  0
 12 13  1  0
  6 14  2  0
 14 15  1  0
 15 16  2  0
 16 17  1  0
 17 18  2  0
 17 19  1  0
 19 20  2  0
 20 21  1  0
 21 22  1  0
 22 23  2  0
 23 24  1  0
 24 25  1  0
 25 26  3  0
 24 27  2  0
 27 28  1  0
 28 29  2  0
 20  2  1  0
 29 22  1  0
 16  4  1  0
 29 19  1  0
 13  7  1  0
M  END
>  <Compound_ID>  (429) 
CHEMBL1779198

>  <Molecule Name>  (429) 
nan

>  <Molecular Weight>  (429) 
385.47

>  <AlogP>  (429) 
3.87

>  <Smiles>  (429) 
CC1(C)c2cc(N3CCC(O)CC3)ccc2C(=O)c2c1[nH]c1cc(C#N)ccc21

>  <Standard Type>  (429) 
IC50

>  <Standard Relation>  (429) 
'='

>  <Standard Units>  (429) 
nM

>  <Standard Value>  (429) 
11.4

>  <Assay ChEMBL ID>  (429) 
CHEMBL1781770

>  <Assay Description>  (429) 
Inhibition of ALK assessed as biotin-EGPWLEEEEEAYGWMDF peptide phosphorylation by TR-FRET assay

>  <BAO Format ID>  (429) 
BAO_0000357

>  <BAO Label>  (429) 
single protein format

>  <Assay Organism>  (429) 
None

>  <Target ChEMBL ID>  (429) 
CHEMBL4247

>  <Target Name>  (429) 
ALK tyrosine kinase receptor

>  <Target Organism>  (429) 
Homo sapiens

>  <Target Type>  (429) 
SINGLE PROTEIN

>  <Document ChEMBL ID>  (429) 
CHEMBL1777813

>  <Source Description>  (429) 
Scientific Literature

>  <Document Journal>  (429) 
Bioorg Med Chem Lett

>  <Document Year>  (429) 
2011.0

>  <Active>  (429) 
1.0

>  <bits>  (429) 
<rdkit.DataStructs.cDataStructs.ExplicitBitVect object at 0x000002422F232CE0>

>  <Group>  (429) 
G2

$$$$

     RDKit          2D

 29 32  0  0  0  0  0  0  0  0999 V2000
    8.2500   -3.8971    0.0000 C   0  0  0  0  0  0  0  0  0  0  0  0
    7.5000   -2.5981    0.0000 C   0  0  0  0  0  0  0  0  0  0  0  0
    6.0000   -2.5981    0.0000 N   0  0  0  0  0  0  0  0  0  0  0  0
    5.2500   -3.8971    0.0000 C   0  0  0  0  0  0  0  0  0  0  0  0
    6.0000   -5.1962    0.0000 C   0  0  0  0  0  0  0  0  0  0  0  0
    5.2500   -1.2990    0.0000 C   0  0  0  0  0  0  0  0  0  0  0  0
    3.7500   -1.2990    0.0000 C   0  0  0  0  0  0  0  0  0  0  0  0
    3.0000    0.0000    0.0000 O   0  0  0  0  0  0  0  0  0  0  0  0
    1.5000    0.0000    0.0000 C   0  0  0  0  0  0  0  0  0  0  0  0
    0.7500   -1.2990    0.0000 C   0  0  0  0  0  0  0  0  0  0  0  0
   -0.7500   -1.2990    0.0000 C   0  0  0  0  0  0  0  0  0  0  0  0
   -1.5000    0.0000    0.0000 C   0  0  0  0  0  0  0  0  0  0  0  0
   -0.7500    1.2990    0.0000 C   0  0  0  0  0  0  0  0  0  0  0  0
    0.7500    1.2990    0.0000 C   0  0  0  0  0  0  0  0  0  0  0  0
   -1.5000    2.5981    0.0000 C   0  0  0  0  0  0  0  0  0  0  0  0
   -1.7605    4.0753    0.0000 C   0  0  0  0  0  0  0  0  0  0  0  0
   -0.0905    3.1111    0.0000 C   0  0  0  0  0  0  0  0  0  0  0  0
   -3.0000    2.5981    0.0000 C   0  0  0  0  0  0  0  0  0  0  0  0
   -4.0037    3.7128    0.0000 N   0  0  0  0  0  0  0  0  0  0  0  0
   -5.3740    3.1027    0.0000 C   0  0  0  0  0  0  0  0  0  0  0  0
   -6.7443    3.7128    0.0000 C   0  0  0  0  0  0  0  0  0  0  0  0
   -7.9579    2.8311    0.0000 C   0  0  0  0  0  0  0  0  0  0  0  0
   -9.3282    3.4412    0.0000 Br  0  0  0  0  0  0  0  0  0  0  0  0
   -7.8011    1.3393    0.0000 C   0  0  0  0  0  0  0  0  0  0  0  0
   -6.4307    0.7292    0.0000 C   0  0  0  0  0  0  0  0  0  0  0  0
   -5.2172    1.6109    0.0000 C   0  0  0  0  0  0  0  0  0  0  0  0
   -3.7500    1.2990    0.0000 C   0  0  0  0  0  0  0  0  0  0  0  0
   -3.0000    0.0000    0.0000 C   0  0  0  0  0  0  0  0  0  0  0  0
   -3.7500   -1.2990    0.0000 O   0  0  0  0  0  0  0  0  0  0  0  0
  1  2  1  0
  2  3  1  0
  3  4  1  0
  4  5  1  0
  3  6  1  0
  6  7  1  0
  7  8  1  0
  8  9  1  0
  9 10  2  0
 10 11  1  0
 11 12  2  0
 12 13  1  0
 13 14  2  0
 13 15  1  0
 15 16  1  0
 15 17  1  0
 15 18  1  0
 18 19  1  0
 19 20  1  0
 20 21  2  0
 21 22  1  0
 22 23  1  0
 22 24  2  0
 24 25  1  0
 25 26  2  0
 26 27  1  0
 27 28  1  0
 28 29  2  0
 14  9  1  0
 27 18  2  0
 28 12  1  0
 26 20  1  0
M  END
>  <Compound_ID>  (430) 
CHEMBL1779189

>  <Molecule Name>  (430) 
nan

>  <Molecular Weight>  (430) 
455.4

>  <AlogP>  (430) 
5.52

>  <Smiles>  (430) 
CCN(CC)CCOc1ccc2c(c1)C(C)(C)c1[nH]c3cc(Br)ccc3c1C2=O

>  <Standard Type>  (430) 
IC50

>  <Standard Relation>  (430) 
'='

>  <Standard Units>  (430) 
nM

>  <Standard Value>  (430) 
100.0

>  <Assay ChEMBL ID>  (430) 
CHEMBL1781770

>  <Assay Description>  (430) 
Inhibition of ALK assessed as biotin-EGPWLEEEEEAYGWMDF peptide phosphorylation by TR-FRET assay

>  <BAO Format ID>  (430) 
BAO_0000357

>  <BAO Label>  (430) 
single protein format

>  <Assay Organism>  (430) 
None

>  <Target ChEMBL ID>  (430) 
CHEMBL4247

>  <Target Name>  (430) 
ALK tyrosine kinase receptor

>  <Target Organism>  (430) 
Homo sapiens

>  <Target Type>  (430) 
SINGLE PROTEIN

>  <Document ChEMBL ID>  (430) 
CHEMBL1777813

>  <Source Description>  (430) 
Scientific Literature

>  <Document Journal>  (430) 
Bioorg Med Chem Lett

>  <Document Year>  (430) 
2011.0

>  <Active>  (430) 
1.0

>  <bits>  (430) 
<rdkit.DataStructs.cDataStructs.ExplicitBitVect object at 0x000002422F232DC0>

>  <Group>  (430) 
G2

$$$$

     RDKit          2D

 39 43  0  0  0  0  0  0  0  0999 V2000
   -6.2940    7.2357    0.0000 C   0  0  0  0  0  0  0  0  0  0  0  0
   -5.1793    6.2320    0.0000 O   0  0  0  0  0  0  0  0  0  0  0  0
   -3.7527    6.6955    0.0000 C   0  0  0  0  0  0  0  0  0  0  0  0
   -3.4408    8.1628    0.0000 C   0  0  0  0  0  0  0  0  0  0  0  0
   -2.0143    8.6263    0.0000 C   0  0  0  0  0  0  0  0  0  0  0  0
   -1.7024   10.0935    0.0000 C   0  0  0  0  0  0  0  0  0  0  0  0
   -0.2758   10.5570    0.0000 C   0  0  0  0  0  0  0  0  0  0  0  0
    0.0361   12.0242    0.0000 C   0  0  0  0  0  0  0  0  0  0  0  0
   -1.0786   13.0279    0.0000 O   0  0  0  0  0  0  0  0  0  0  0  0
   -2.5052   12.5644    0.0000 C   0  0  0  0  0  0  0  0  0  0  0  0
   -2.8171   11.0972    0.0000 C   0  0  0  0  0  0  0  0  0  0  0  0
   -0.8995    7.6226    0.0000 C   0  0  0  0  0  0  0  0  0  0  0  0
    0.5271    8.0861    0.0000 C   0  0  0  0  0  0  0  0  0  0  0  0
   -1.2114    6.1554    0.0000 C   0  0  0  0  0  0  0  0  0  0  0  0
   -2.6380    5.6918    0.0000 C   0  0  0  0  0  0  0  0  0  0  0  0
   -2.9499    4.2246    0.0000 N   0  0  0  0  0  0  0  0  0  0  0  0
   -1.8351    3.2209    0.0000 C   0  0  0  0  0  0  0  0  0  0  0  0
   -0.4086    3.6844    0.0000 N   0  0  0  0  0  0  0  0  0  0  0  0
    0.7062    2.6807    0.0000 C   0  0  0  0  0  0  0  0  0  0  0  0
    2.1328    3.1443    0.0000 N   0  0  0  0  0  0  0  0  0  0  0  0
    2.4446    4.6115    0.0000 C   0  0  0  0  0  0  0  0  0  0  0  0
    1.3299    5.6152    0.0000 C   0  0  0  0  0  0  0  0  0  0  0  0
    1.6418    7.0824    0.0000 C   0  0  0  0  0  0  0  0  0  0  0  0
    3.0684    7.5459    0.0000 C   0  0  0  0  0  0  0  0  0  0  0  0
    4.1831    6.5422    0.0000 C   0  0  0  0  0  0  0  0  0  0  0  0
    3.8712    5.0750    0.0000 C   0  0  0  0  0  0  0  0  0  0  0  0
    4.9859    4.0713    0.0000 S   0  0  0  0  0  0  0  0  0  0  0  0
    3.9822    2.9566    0.0000 O   0  0  0  0  0  0  0  0  0  0  0  0
    5.9896    5.1860    0.0000 O   0  0  0  0  0  0  0  0  0  0  0  0
    6.1006    3.0676    0.0000 C   0  0  0  0  0  0  0  0  0  0  0  0
    5.7888    1.6004    0.0000 C   0  0  0  0  0  0  0  0  0  0  0  0
    7.5272    3.5312    0.0000 C   0  0  0  0  0  0  0  0  0  0  0  0
    0.3943    1.2135    0.0000 C   0  0  0  0  0  0  0  0  0  0  0  0
    1.2760    0.0000    0.0000 C   0  0  0  0  0  0  0  0  0  0  0  0
    2.7760    0.0000    0.0000 C   0  0  0  0  0  0  0  0  0  0  0  0
    0.3943   -1.2135    0.0000 N   0  0  0  0  0  0  0  0  0  0  0  0
   -1.0323   -0.7500    0.0000 N   0  0  0  0  0  0  0  0  0  0  0  0
   -1.0323    0.7500    0.0000 C   0  0  0  0  0  0  0  0  0  0  0  0
   -2.1470    1.7537    0.0000 N   0  0  0  0  0  0  0  0  0  0  0  0
  1  2  1  0
  2  3  1  0
  3  4  2  0
  4  5  1  0
  5  6  1  0
  6  7  1  0
  7  8  1  0
  8  9  1  0
  9 10  1  0
 10 11  1  0
  5 12  2  0
 12 13  1  0
 12 14  1  0
 14 15  2  0
 15 16  1  0
 16 17  1  0
 17 18  1  0
 18 19  2  0
 19 20  1  0
 20 21  1  0
 21 22  2  0
 22 23  1  0
 23 24  2  0
 24 25  1  0
 25 26  2  0
 26 27  1  0
 27 28  2  0
 27 29  2  0
 27 30  1  0
 30 31  1  0
 30 32  1  0
 19 33  1  0
 33 34  2  0
 34 35  1  0
 34 36  1  0
 36 37  1  0
 37 38  2  0
 38 39  1  0
 15  3  1  0
 39 17  2  0
 11  6  1  0
 26 21  1  0
 38 33  1  0
M  END
>  <Compound_ID>  (431) 
CHEMBL3651875

>  <Molecule Name>  (431) 
nan

>  <Molecular Weight>  (431) 
550.69

>  <AlogP>  (431) 
5.54

>  <Smiles>  (431) 
COc1cc(C2CCOCC2)c(C)cc1Nc1nc(Nc2ccccc2S(=O)(=O)C(C)C)c2c(C)[nH]nc2n1

>  <Standard Type>  (431) 
IC50

>  <Standard Relation>  (431) 
'='

>  <Standard Units>  (431) 
nM

>  <Standard Value>  (431) 
6.0

>  <Assay ChEMBL ID>  (431) 
CHEMBL3705165

>  <Assay Description>  (431) 
Enzyme Assay: The inhibition of ALK tyrosine kinase activity may be demonstrated using known methods, for example using the recombinant kinase domain of the ALK in analogy to the VEGF-R kinase assay described in J. Wood et al. Cancer Res. 60, 2178-2189 (2000).

>  <BAO Format ID>  (431) 
BAO_0000357

>  <BAO Label>  (431) 
single protein format

>  <Assay Organism>  (431) 
Homo sapiens

>  <Target ChEMBL ID>  (431) 
CHEMBL4247

>  <Target Name>  (431) 
ALK tyrosine kinase receptor

>  <Target Organism>  (431) 
Homo sapiens

>  <Target Type>  (431) 
SINGLE PROTEIN

>  <Document ChEMBL ID>  (431) 
CHEMBL3638924

>  <Source Description>  (431) 
BindingDB Database

>  <Document Journal>  (431) 
nan

>  <Document Year>  (431) 
2013.0

>  <Active>  (431) 
1.0

>  <bits>  (431) 
<rdkit.DataStructs.cDataStructs.ExplicitBitVect object at 0x000002422F232EA0>

>  <Group>  (431) 
G2

$$$$

     RDKit          2D

 46 50  0  0  0  0  0  0  0  0999 V2000
    2.3983   16.8894    0.0000 C   0  0  0  0  0  0  0  0  0  0  0  0
    0.9717   16.4259    0.0000 N   0  0  0  0  0  0  0  0  0  0  0  0
    0.6598   14.9587    0.0000 C   0  0  0  0  0  0  0  0  0  0  0  0
    1.7745   13.9550    0.0000 O   0  0  0  0  0  0  0  0  0  0  0  0
   -0.7668   14.4952    0.0000 C   0  0  0  0  0  0  0  0  0  0  0  0
   -1.0786   13.0279    0.0000 N   0  0  0  0  0  0  0  0  0  0  0  0
    0.0361   12.0242    0.0000 C   0  0  0  0  0  0  0  0  0  0  0  0
   -0.2758   10.5570    0.0000 C   0  0  0  0  0  0  0  0  0  0  0  0
   -1.7024   10.0935    0.0000 C   0  0  0  0  0  0  0  0  0  0  0  0
   -2.0143    8.6263    0.0000 C   0  0  0  0  0  0  0  0  0  0  0  0
   -3.4408    8.1628    0.0000 C   0  0  0  0  0  0  0  0  0  0  0  0
   -3.7527    6.6955    0.0000 C   0  0  0  0  0  0  0  0  0  0  0  0
   -5.1793    6.2320    0.0000 O   0  0  0  0  0  0  0  0  0  0  0  0
   -6.2940    7.2357    0.0000 C   0  0  0  0  0  0  0  0  0  0  0  0
   -7.7206    6.7722    0.0000 C   0  0  0  0  0  0  0  0  0  0  0  0
   -5.9821    8.7029    0.0000 C   0  0  0  0  0  0  0  0  0  0  0  0
   -2.6380    5.6918    0.0000 C   0  0  0  0  0  0  0  0  0  0  0  0
   -2.9499    4.2246    0.0000 N   0  0  0  0  0  0  0  0  0  0  0  0
   -1.8351    3.2209    0.0000 C   0  0  0  0  0  0  0  0  0  0  0  0
   -0.4086    3.6844    0.0000 N   0  0  0  0  0  0  0  0  0  0  0  0
    0.7062    2.6807    0.0000 C   0  0  0  0  0  0  0  0  0  0  0  0
    2.1328    3.1443    0.0000 N   0  0  0  0  0  0  0  0  0  0  0  0
    2.4446    4.6115    0.0000 C   0  0  0  0  0  0  0  0  0  0  0  0
    1.3299    5.6152    0.0000 C   0  0  0  0  0  0  0  0  0  0  0  0
    1.6418    7.0824    0.0000 C   0  0  0  0  0  0  0  0  0  0  0  0
    3.0684    7.5459    0.0000 C   0  0  0  0  0  0  0  0  0  0  0  0
    4.1831    6.5422    0.0000 C   0  0  0  0  0  0  0  0  0  0  0  0
    3.8712    5.0750    0.0000 C   0  0  0  0  0  0  0  0  0  0  0  0
    4.9859    4.0713    0.0000 S   0  0  0  0  0  0  0  0  0  0  0  0
    5.9896    5.1860    0.0000 O   0  0  0  0  0  0  0  0  0  0  0  0
    3.9822    2.9566    0.0000 O   0  0  0  0  0  0  0  0  0  0  0  0
    6.1006    3.0676    0.0000 C   0  0  0  0  0  0  0  0  0  0  0  0
    7.5272    3.5312    0.0000 C   0  0  0  0  0  0  0  0  0  0  0  0
    5.7888    1.6004    0.0000 C   0  0  0  0  0  0  0  0  0  0  0  0
    0.3943    1.2135    0.0000 C   0  0  0  0  0  0  0  0  0  0  0  0
    1.2760    0.0000    0.0000 C   0  0  0  0  0  0  0  0  0  0  0  0
    2.7760    0.0000    0.0000 C   0  0  0  0  0  0  0  0  0  0  0  0
    0.3943   -1.2135    0.0000 N   0  0  0  0  0  0  0  0  0  0  0  0
   -1.0323   -0.7500    0.0000 N   0  0  0  0  0  0  0  0  0  0  0  0
   -1.0323    0.7500    0.0000 C   0  0  0  0  0  0  0  0  0  0  0  0
   -2.1470    1.7537    0.0000 N   0  0  0  0  0  0  0  0  0  0  0  0
   -1.2114    6.1554    0.0000 C   0  0  0  0  0  0  0  0  0  0  0  0
   -0.8995    7.6226    0.0000 C   0  0  0  0  0  0  0  0  0  0  0  0
    0.5271    8.0861    0.0000 C   0  0  0  0  0  0  0  0  0  0  0  0
   -2.8171   11.0972    0.0000 C   0  0  0  0  0  0  0  0  0  0  0  0
   -2.5052   12.5644    0.0000 C   0  0  0  0  0  0  0  0  0  0  0  0
  1  2  1  0
  2  3  1  0
  3  4  2  0
  3  5  1  0
  5  6  1  0
  6  7  1  0
  7  8  1  0
  8  9  1  0
  9 10  1  0
 10 11  2  0
 11 12  1  0
 12 13  1  0
 13 14  1  0
 14 15  1  0
 14 16  1  0
 12 17  2  0
 17 18  1  0
 18 19  1  0
 19 20  1  0
 20 21  2  0
 21 22  1  0
 22 23  1  0
 23 24  2  0
 24 25  1  0
 25 26  2  0
 26 27  1  0
 27 28  2  0
 28 29  1  0
 29 30  2  0
 29 31  2  0
 29 32  1  0
 32 33  1  0
 32 34  1  0
 21 35  1  0
 35 36  2  0
 36 37  1  0
 36 38  1  0
 38 39  1  0
 39 40  2  0
 40 41  1  0
 17 42  1  0
 42 43  2  0
 43 44  1  0
  9 45  1  0
 45 46  1  0
 46  6  1  0
 43 10  1  0
 41 19  2  0
 28 23  1  0
 40 35  1  0
M  END
>  <Compound_ID>  (432) 
CHEMBL3651856

>  <Molecule Name>  (432) 
nan

>  <Molecular Weight>  (432) 
648.83

>  <AlogP>  (432) 
5.35

>  <Smiles>  (432) 
CNC(=O)CN1CCC(c2cc(OC(C)C)c(Nc3nc(Nc4ccccc4S(=O)(=O)C(C)C)c4c(C)[nH]nc4n3)cc2C)CC1

>  <Standard Type>  (432) 
IC50

>  <Standard Relation>  (432) 
'='

>  <Standard Units>  (432) 
nM

>  <Standard Value>  (432) 
21.0

>  <Assay ChEMBL ID>  (432) 
CHEMBL3705165

>  <Assay Description>  (432) 
Enzyme Assay: The inhibition of ALK tyrosine kinase activity may be demonstrated using known methods, for example using the recombinant kinase domain of the ALK in analogy to the VEGF-R kinase assay described in J. Wood et al. Cancer Res. 60, 2178-2189 (2000).

>  <BAO Format ID>  (432) 
BAO_0000357

>  <BAO Label>  (432) 
single protein format

>  <Assay Organism>  (432) 
Homo sapiens

>  <Target ChEMBL ID>  (432) 
CHEMBL4247

>  <Target Name>  (432) 
ALK tyrosine kinase receptor

>  <Target Organism>  (432) 
Homo sapiens

>  <Target Type>  (432) 
SINGLE PROTEIN

>  <Document ChEMBL ID>  (432) 
CHEMBL3638924

>  <Source Description>  (432) 
BindingDB Database

>  <Document Journal>  (432) 
nan

>  <Document Year>  (432) 
2013.0

>  <Active>  (432) 
1.0

>  <bits>  (432) 
<rdkit.DataStructs.cDataStructs.ExplicitBitVect object at 0x000002422F232F10>

>  <Group>  (432) 
G2

$$$$

     RDKit          2D

 38 43  0  0  0  0  0  0  0  0999 V2000
   -6.8516   -6.6578    0.0000 C   0  0  0  0  0  0  0  0  0  0  0  0
   -5.6381   -7.5395    0.0000 C   0  0  0  0  0  0  0  0  0  0  0  0
   -4.2677   -6.9294    0.0000 C   0  0  0  0  0  0  0  0  0  0  0  0
   -4.1110   -5.4376    0.0000 C   0  0  0  0  0  0  0  0  0  0  0  0
   -2.7406   -4.8275    0.0000 C   0  0  0  0  0  0  0  0  0  0  0  0
   -1.5271   -5.7092    0.0000 C   0  0  0  0  0  0  0  0  0  0  0  0
   -1.6839   -7.2010    0.0000 C   0  0  0  0  0  0  0  0  0  0  0  0
   -3.0542   -7.8111    0.0000 C   0  0  0  0  0  0  0  0  0  0  0  0
   -3.2110   -9.3029    0.0000 N   0  0  0  0  0  0  0  0  0  0  0  0
   -4.5813   -9.9130    0.0000 C   0  0  0  0  0  0  0  0  0  0  0  0
   -4.7381  -11.4047    0.0000 C   0  0  0  0  0  0  0  0  0  0  0  0
   -3.5246  -12.2864    0.0000 N   0  0  0  0  0  0  0  0  0  0  0  0
   -3.6814  -13.7782    0.0000 C   0  0  0  0  0  0  0  0  0  0  0  0
   -2.4679  -14.6599    0.0000 O   0  0  0  0  0  0  0  0  0  0  0  0
   -5.0517  -14.3883    0.0000 C   0  0  0  0  0  0  0  0  0  0  0  0
   -6.2652  -13.5066    0.0000 C   0  0  0  0  0  0  0  0  0  0  0  0
   -7.6356  -14.1167    0.0000 C   0  0  0  0  0  0  0  0  0  0  0  0
   -7.7923  -15.6085    0.0000 C   0  0  0  0  0  0  0  0  0  0  0  0
   -6.5788  -16.4902    0.0000 C   0  0  0  0  0  0  0  0  0  0  0  0
   -5.2085  -15.8801    0.0000 C   0  0  0  0  0  0  0  0  0  0  0  0
   -2.1543  -11.6763    0.0000 C   0  0  0  0  0  0  0  0  0  0  0  0
   -1.9975  -10.1845    0.0000 C   0  0  0  0  0  0  0  0  0  0  0  0
   -0.1568   -5.0991    0.0000 C   0  0  0  0  0  0  0  0  0  0  0  0
    1.3396   -4.9944    0.0000 C   0  0  0  0  0  0  0  0  0  0  0  0
    0.2061   -6.5545    0.0000 C   0  0  0  0  0  0  0  0  0  0  0  0
   -0.0000   -3.6073    0.0000 C   0  0  0  0  0  0  0  0  0  0  0  0
    1.2135   -2.7256    0.0000 N   0  0  0  0  0  0  0  0  0  0  0  0
    0.7500   -1.2990    0.0000 C   0  0  0  0  0  0  0  0  0  0  0  0
    1.5000    0.0000    0.0000 C   0  0  0  0  0  0  0  0  0  0  0  0
    0.7500    1.2990    0.0000 C   0  0  0  0  0  0  0  0  0  0  0  0
    1.5000    2.5981    0.0000 C   0  0  0  0  0  0  0  0  0  0  0  0
    2.2500    3.8971    0.0000 N   0  0  0  0  0  0  0  0  0  0  0  0
   -0.7500    1.2990    0.0000 C   0  0  0  0  0  0  0  0  0  0  0  0
   -1.5000    0.0000    0.0000 C   0  0  0  0  0  0  0  0  0  0  0  0
   -0.7500   -1.2990    0.0000 C   0  0  0  0  0  0  0  0  0  0  0  0
   -1.2135   -2.7256    0.0000 C   0  0  0  0  0  0  0  0  0  0  0  0
   -2.5838   -3.3357    0.0000 C   0  0  0  0  0  0  0  0  0  0  0  0
   -3.7974   -2.4540    0.0000 O   0  0  0  0  0  0  0  0  0  0  0  0
  1  2  1  0
  2  3  1  0
  3  4  2  0
  4  5  1  0
  5  6  2  0
  6  7  1  0
  7  8  2  0
  8  9  1  0
  9 10  1  0
 10 11  1  0
 11 12  1  0
 12 13  1  0
 13 14  2  0
 13 15  1  0
 15 16  1  0
 16 17  1  0
 17 18  1  0
 18 19  1  0
 19 20  1  0
 12 21  1  0
 21 22  1  0
  6 23  1  0
 23 24  1  0
 23 25  1  0
 23 26  1  0
 26 27  1  0
 27 28  1  0
 28 29  2  0
 29 30  1  0
 30 31  1  0
 31 32  3  0
 30 33  2  0
 33 34  1  0
 34 35  2  0
 35 36  1  0
 36 37  1  0
 37 38  2  0
  8  3  1  0
 22  9  1  0
 36 26  2  0
 37  5  1  0
 20 15  1  0
 35 28  1  0
M  END
>  <Compound_ID>  (433) 
CHEMBL3945084

>  <Molecule Name>  (433) 
nan

>  <Molecular Weight>  (433) 
508.67

>  <AlogP>  (433) 
5.70

>  <Smiles>  (433) 
CCc1cc2c(cc1N1CCN(C(=O)C3CCCCC3)CC1)C(C)(C)c1[nH]c3cc(C#N)ccc3c1C2=O

>  <Standard Type>  (433) 
IC50

>  <Standard Relation>  (433) 
'='

>  <Standard Units>  (433) 
nM

>  <Standard Value>  (433) 
7.5

>  <Assay ChEMBL ID>  (433) 
CHEMBL3887074

>  <Assay Description>  (433) 
Inhibition Assay: ALK-inhibiting activity was measured by following an activity of inhibiting phosphorylation by biotinylated peptide (EGPWLEEEEEAYGWMDF). For the detection of phosphorylation of the biotinylated peptide, time-resolved fluorescence measurement was performed using an anti-phosphorylated tyrosine antibody labeled with europium cryptate and streptavidin conjugated to XL665, i.e., an allophycocyanin derivative.

>  <BAO Format ID>  (433) 
BAO_0000357

>  <BAO Label>  (433) 
single protein format

>  <Assay Organism>  (433) 
Homo sapiens

>  <Target ChEMBL ID>  (433) 
CHEMBL4247

>  <Target Name>  (433) 
ALK tyrosine kinase receptor

>  <Target Organism>  (433) 
Homo sapiens

>  <Target Type>  (433) 
SINGLE PROTEIN

>  <Document ChEMBL ID>  (433) 
CHEMBL3886150

>  <Source Description>  (433) 
BindingDB Database

>  <Document Journal>  (433) 
nan

>  <Document Year>  (433) 
2015.0

>  <Active>  (433) 
1.0

>  <bits>  (433) 
<rdkit.DataStructs.cDataStructs.ExplicitBitVect object at 0x000002422F2330D0>

>  <Group>  (433) 
G2

$$$$

     RDKit          2D

 29 32  0  0  0  0  0  0  0  0999 V2000
    2.6491   -3.5623    0.0000 C   0  0  0  0  0  0  0  0  0  0  0  0
    1.5000   -2.5981    0.0000 C   0  0  0  0  0  0  0  0  0  0  0  0
    2.6491   -1.6339    0.0000 C   0  0  0  0  0  0  0  0  0  0  0  0
    0.7500   -1.2990    0.0000 C   0  0  0  0  0  0  0  0  0  0  0  0
    1.5000    0.0000    0.0000 C   0  0  0  0  0  0  0  0  0  0  0  0
    0.7500    1.2990    0.0000 C   0  0  0  0  0  0  0  0  0  0  0  0
    1.5000    2.5981    0.0000 C   0  0  0  0  0  0  0  0  0  0  0  0
    0.7500    3.8971    0.0000 O   0  0  0  0  0  0  0  0  0  0  0  0
    3.0000    2.5981    0.0000 N   0  0  0  0  0  0  0  0  0  0  0  0
    3.7500    3.8971    0.0000 O   0  0  0  0  0  0  0  0  0  0  0  0
    5.2500    3.8971    0.0000 C   0  0  0  0  0  0  0  0  0  0  0  0
    6.0000    5.1962    0.0000 C   0  0  0  0  0  0  0  0  0  0  0  0
    7.5000    5.1962    0.0000 O   0  0  0  0  0  0  0  0  0  0  0  0
   -0.7500    1.2990    0.0000 C   0  0  0  0  0  0  0  0  0  0  0  0
   -1.5000    0.0000    0.0000 C   0  0  0  0  0  0  0  0  0  0  0  0
   -0.7500   -1.2990    0.0000 C   0  0  0  0  0  0  0  0  0  0  0  0
   -1.5000   -2.5981    0.0000 C   0  0  0  0  0  0  0  0  0  0  0  0
   -3.0000   -2.5981    0.0000 O   0  0  0  0  0  0  0  0  0  0  0  0
   -0.7500   -3.8971    0.0000 C   0  0  0  0  0  0  0  0  0  0  0  0
    0.7500   -3.8971    0.0000 C   0  0  0  0  0  0  0  0  0  0  0  0
    1.2135   -5.3237    0.0000 N   0  0  0  0  0  0  0  0  0  0  0  0
    0.0000   -6.2054    0.0000 C   0  0  0  0  0  0  0  0  0  0  0  0
   -0.1568   -7.6972    0.0000 C   0  0  0  0  0  0  0  0  0  0  0  0
   -1.5271   -8.3073    0.0000 C   0  0  0  0  0  0  0  0  0  0  0  0
   -1.6839   -9.7990    0.0000 C   0  0  0  0  0  0  0  0  0  0  0  0
   -1.8407  -11.2908    0.0000 N   0  0  0  0  0  0  0  0  0  0  0  0
   -2.7406   -7.4256    0.0000 C   0  0  0  0  0  0  0  0  0  0  0  0
   -2.5838   -5.9338    0.0000 C   0  0  0  0  0  0  0  0  0  0  0  0
   -1.2135   -5.3237    0.0000 C   0  0  0  0  0  0  0  0  0  0  0  0
  1  2  1  0
  2  3  1  0
  2  4  1  0
  4  5  2  0
  5  6  1  0
  6  7  1  0
  7  8  2  0
  7  9  1  0
  9 10  1  0
 10 11  1  0
 11 12  1  0
 12 13  1  0
  6 14  2  0
 14 15  1  0
 15 16  2  0
 16 17  1  0
 17 18  2  0
 17 19  1  0
 19 20  2  0
 20 21  1  0
 21 22  1  0
 22 23  2  0
 23 24  1  0
 24 25  1  0
 25 26  3  0
 24 27  2  0
 27 28  1  0
 28 29  2  0
 20  2  1  0
 29 22  1  0
 16  4  1  0
 29 19  1  0
M  END
>  <Compound_ID>  (434) 
CHEMBL3928499

>  <Molecule Name>  (434) 
nan

>  <Molecular Weight>  (434) 
389.41

>  <AlogP>  (434) 
2.56

>  <Smiles>  (434) 
CC1(C)c2cc(C(=O)NOCCO)ccc2C(=O)c2c1[nH]c1cc(C#N)ccc21

>  <Standard Type>  (434) 
IC50

>  <Standard Relation>  (434) 
'='

>  <Standard Units>  (434) 
nM

>  <Standard Value>  (434) 
3.611

>  <Assay ChEMBL ID>  (434) 
CHEMBL3887074

>  <Assay Description>  (434) 
Inhibition Assay: ALK-inhibiting activity was measured by following an activity of inhibiting phosphorylation by biotinylated peptide (EGPWLEEEEEAYGWMDF). For the detection of phosphorylation of the biotinylated peptide, time-resolved fluorescence measurement was performed using an anti-phosphorylated tyrosine antibody labeled with europium cryptate and streptavidin conjugated to XL665, i.e., an allophycocyanin derivative.

>  <BAO Format ID>  (434) 
BAO_0000357

>  <BAO Label>  (434) 
single protein format

>  <Assay Organism>  (434) 
Homo sapiens

>  <Target ChEMBL ID>  (434) 
CHEMBL4247

>  <Target Name>  (434) 
ALK tyrosine kinase receptor

>  <Target Organism>  (434) 
Homo sapiens

>  <Target Type>  (434) 
SINGLE PROTEIN

>  <Document ChEMBL ID>  (434) 
CHEMBL3886150

>  <Source Description>  (434) 
BindingDB Database

>  <Document Journal>  (434) 
nan

>  <Document Year>  (434) 
2015.0

>  <Active>  (434) 
1.0

>  <bits>  (434) 
<rdkit.DataStructs.cDataStructs.ExplicitBitVect object at 0x000002422F233140>

>  <Group>  (434) 
G2

$$$$

     RDKit          2D

 40 46  0  0  0  0  0  0  0  0999 V2000
    9.7500   -1.2990    0.0000 C   0  0  0  0  0  0  0  0  0  0  0  0
    8.2500   -1.2990    0.0000 C   0  0  0  0  0  0  0  0  0  0  0  0
    6.7500   -1.2990    0.0000 C   0  0  0  0  0  0  0  0  0  0  0  0
    5.2500   -1.2990    0.0000 C   0  0  0  0  0  0  0  0  0  0  0  0
    4.5000   -2.5981    0.0000 C   0  0  0  0  0  0  0  0  0  0  0  0
    3.0000   -2.5981    0.0000 C   0  0  0  0  0  0  0  0  0  0  0  0
    2.2500   -1.2990    0.0000 C   0  0  0  0  0  0  0  0  0  0  0  0
    3.0000   -0.0000    0.0000 C   0  0  0  0  0  0  0  0  0  0  0  0
    4.5000   -0.0000    0.0000 C   0  0  0  0  0  0  0  0  0  0  0  0
    5.2500    1.2990    0.0000 N   0  0  0  0  0  0  0  0  0  0  0  0
    6.7500    1.2990    0.0000 C   0  0  0  0  0  0  0  0  0  0  0  0
    7.5000    2.5981    0.0000 C   0  0  0  0  0  0  0  0  0  0  0  0
    6.7500    3.8971    0.0000 C   0  0  0  0  0  0  0  0  0  0  0  0
    7.5000    5.1962    0.0000 N   0  0  0  0  0  0  0  0  0  0  0  0
    9.0000    5.1962    0.0000 C   0  0  0  0  0  0  0  0  0  0  0  0
    9.7500    6.4952    0.0000 C   0  0  0  0  0  0  0  0  0  0  0  0
    9.0000    7.7942    0.0000 O   0  0  0  0  0  0  0  0  0  0  0  0
    7.5000    7.7942    0.0000 C   0  0  0  0  0  0  0  0  0  0  0  0
    6.7500    6.4952    0.0000 C   0  0  0  0  0  0  0  0  0  0  0  0
    5.2500    3.8971    0.0000 C   0  0  0  0  0  0  0  0  0  0  0  0
    4.5000    2.5981    0.0000 C   0  0  0  0  0  0  0  0  0  0  0  0
    0.7500   -1.2990    0.0000 C   0  0  0  0  0  0  0  0  0  0  0  0
    1.5000    0.0000    0.0000 C   0  0  0  0  0  0  0  0  0  0  0  0
    0.7500    1.2990    0.0000 C   0  0  0  0  0  0  0  0  0  0  0  0
   -0.7500    1.2990    0.0000 O   0  0  0  0  0  0  0  0  0  0  0  0
   -1.5000    0.0000    0.0000 C   0  0  0  0  0  0  0  0  0  0  0  0
   -0.7500   -1.2990    0.0000 C   0  0  0  0  0  0  0  0  0  0  0  0
   -0.0000   -2.5981    0.0000 C   0  0  0  0  0  0  0  0  0  0  0  0
   -1.4672   -2.9099    0.0000 N   0  0  0  0  0  0  0  0  0  0  0  0
   -1.6240   -4.4017    0.0000 C   0  0  0  0  0  0  0  0  0  0  0  0
   -2.8375   -5.2834    0.0000 C   0  0  0  0  0  0  0  0  0  0  0  0
   -2.6807   -6.7752    0.0000 C   0  0  0  0  0  0  0  0  0  0  0  0
   -3.8943   -7.6569    0.0000 C   0  0  0  0  0  0  0  0  0  0  0  0
   -5.1078   -8.5385    0.0000 N   0  0  0  0  0  0  0  0  0  0  0  0
   -1.3104   -7.3853    0.0000 C   0  0  0  0  0  0  0  0  0  0  0  0
   -0.0969   -6.5036    0.0000 C   0  0  0  0  0  0  0  0  0  0  0  0
   -0.2537   -5.0118    0.0000 C   0  0  0  0  0  0  0  0  0  0  0  0
    0.7500   -3.8971    0.0000 C   0  0  0  0  0  0  0  0  0  0  0  0
    2.2500   -3.8971    0.0000 C   0  0  0  0  0  0  0  0  0  0  0  0
    3.0000   -5.1962    0.0000 O   0  0  0  0  0  0  0  0  0  0  0  0
  1  2  1  0
  2  3  3  0
  3  4  1  0
  4  5  2  0
  5  6  1  0
  6  7  2  0
  7  8  1  0
  8  9  2  0
  9 10  1  0
 10 11  1  0
 11 12  1  0
 12 13  1  0
 13 14  1  0
 14 15  1  0
 15 16  1  0
 16 17  1  0
 17 18  1  0
 18 19  1  0
 13 20  1  0
 20 21  1  0
  7 22  1  0
 22 23  1  0
 23 24  1  0
 24 25  1  0
 25 26  1  0
 26 27  1  0
 22 28  1  0
 28 29  1  0
 29 30  1  0
 30 31  2  0
 31 32  1  0
 32 33  1  0
 33 34  3  0
 32 35  2  0
 35 36  1  0
 36 37  2  0
 37 38  1  0
 38 39  1  0
 39 40  2  0
  9  4  1  0
 21 10  1  0
 27 22  1  0
 38 28  2  0
 39  6  1  0
 19 14  1  0
 37 30  1  0
M  END
>  <Compound_ID>  (435) 
CHEMBL3940191

>  <Molecule Name>  (435) 
nan

>  <Molecular Weight>  (435) 
534.66

>  <AlogP>  (435) 
4.35

>  <Smiles>  (435) 
CC#Cc1cc2c(cc1N1CCC(N3CCOCC3)CC1)C1(CCOCC1)c1[nH]c3cc(C#N)ccc3c1C2=O

>  <Standard Type>  (435) 
IC50

>  <Standard Relation>  (435) 
'='

>  <Standard Units>  (435) 
nM

>  <Standard Value>  (435) 
0.9

>  <Assay ChEMBL ID>  (435) 
CHEMBL3887074

>  <Assay Description>  (435) 
Inhibition Assay: ALK-inhibiting activity was measured by following an activity of inhibiting phosphorylation by biotinylated peptide (EGPWLEEEEEAYGWMDF). For the detection of phosphorylation of the biotinylated peptide, time-resolved fluorescence measurement was performed using an anti-phosphorylated tyrosine antibody labeled with europium cryptate and streptavidin conjugated to XL665, i.e., an allophycocyanin derivative.

>  <BAO Format ID>  (435) 
BAO_0000357

>  <BAO Label>  (435) 
single protein format

>  <Assay Organism>  (435) 
Homo sapiens

>  <Target ChEMBL ID>  (435) 
CHEMBL4247

>  <Target Name>  (435) 
ALK tyrosine kinase receptor

>  <Target Organism>  (435) 
Homo sapiens

>  <Target Type>  (435) 
SINGLE PROTEIN

>  <Document ChEMBL ID>  (435) 
CHEMBL3886150

>  <Source Description>  (435) 
BindingDB Database

>  <Document Journal>  (435) 
nan

>  <Document Year>  (435) 
2015.0

>  <Active>  (435) 
1.0

>  <bits>  (435) 
<rdkit.DataStructs.cDataStructs.ExplicitBitVect object at 0x000002422F2303C0>

>  <Group>  (435) 
G2

$$$$

     RDKit          2D

 38 41  0  0  0  0  0  0  0  0999 V2000
   -3.7500    3.8971    0.0000 C   0  0  0  0  0  0  0  0  0  0  0  0
   -2.2500    3.8971    0.0000 C   0  0  0  0  0  0  0  0  0  0  0  0
   -1.5000    5.1962    0.0000 C   0  0  0  0  0  0  0  0  0  0  0  0
   -1.5000    2.5981    0.0000 S   0  0  0  0  0  0  0  0  0  0  0  0
   -0.2010    3.3481    0.0000 O   0  0  0  0  0  0  0  0  0  0  0  0
   -2.7990    1.8481    0.0000 O   0  0  0  0  0  0  0  0  0  0  0  0
   -0.7500    1.2990    0.0000 C   0  0  0  0  0  0  0  0  0  0  0  0
   -1.5000   -0.0000    0.0000 C   0  0  0  0  0  0  0  0  0  0  0  0
   -0.7500   -1.2990    0.0000 C   0  0  0  0  0  0  0  0  0  0  0  0
    0.7500   -1.2990    0.0000 C   0  0  0  0  0  0  0  0  0  0  0  0
    1.5000   -0.0000    0.0000 C   0  0  0  0  0  0  0  0  0  0  0  0
    0.7500    1.2990    0.0000 C   0  0  0  0  0  0  0  0  0  0  0  0
    1.5000    2.5981    0.0000 N   0  0  0  0  0  0  0  0  0  0  0  0
    3.0000    2.5981    0.0000 C   0  0  0  0  0  0  0  0  0  0  0  0
    3.7500    1.2990    0.0000 N   0  0  0  0  0  0  0  0  0  0  0  0
    5.2500    1.2990    0.0000 C   0  0  0  0  0  0  0  0  0  0  0  0
    6.0000   -0.0000    0.0000 N   0  0  0  0  0  0  0  0  0  0  0  0
    7.5000   -0.0000    0.0000 C   0  0  0  0  0  0  0  0  0  0  0  0
    8.2500   -1.2990    0.0000 C   0  0  0  0  0  0  0  0  0  0  0  0
    9.7500   -1.2990    0.0000 C   0  0  0  0  0  0  0  0  0  0  0  0
   10.5000   -0.0000    0.0000 C   0  0  0  0  0  0  0  0  0  0  0  0
    9.7500    1.2990    0.0000 C   0  0  0  0  0  0  0  0  0  0  0  0
   10.5000    2.5981    0.0000 N   0  0  0  0  0  0  0  0  0  0  0  0
   12.0000    2.5981    0.0000 C   0  0  0  0  0  0  0  0  0  0  0  0
   12.7500    1.2990    0.0000 O   0  0  0  0  0  0  0  0  0  0  0  0
   12.7500    3.8971    0.0000 C   0  0  0  0  0  0  0  0  0  0  0  0
   12.0000    5.1962    0.0000 N   0  0  0  0  0  0  0  0  0  0  0  0
   14.2500    3.8971    0.0000 C   0  0  0  0  0  0  0  0  0  0  0  0
   15.0000    5.1962    0.0000 C   0  0  0  0  0  0  0  0  0  0  0  0
   14.3899    6.5665    0.0000 C   0  0  0  0  0  0  0  0  0  0  0  0
   15.5046    7.5702    0.0000 N   0  0  0  0  0  0  0  0  0  0  0  0
   16.8037    6.8202    0.0000 C   0  0  0  0  0  0  0  0  0  0  0  0
   16.4918    5.3529    0.0000 N   0  0  0  0  0  0  0  0  0  0  0  0
    8.2500    1.2990    0.0000 C   0  0  0  0  0  0  0  0  0  0  0  0
    6.0000    2.5981    0.0000 N   0  0  0  0  0  0  0  0  0  0  0  0
    5.2500    3.8971    0.0000 C   0  0  0  0  0  0  0  0  0  0  0  0
    3.7500    3.8971    0.0000 C   0  0  0  0  0  0  0  0  0  0  0  0
    3.0000    5.1962    0.0000 Cl  0  0  0  0  0  0  0  0  0  0  0  0
  1  2  1  0
  2  3  1  0
  2  4  1  0
  4  5  2  0
  4  6  2  0
  4  7  1  0
  7  8  2  0
  8  9  1  0
  9 10  2  0
 10 11  1  0
 11 12  2  0
 12 13  1  0
 13 14  1  0
 14 15  2  0
 15 16  1  0
 16 17  1  0
 17 18  1  0
 18 19  2  0
 19 20  1  0
 20 21  2  0
 21 22  1  0
 22 23  1  0
 23 24  1  0
 24 25  2  0
 24 26  1  0
 26 27  1  1
 26 28  1  0
 28 29  1  0
 29 30  2  0
 30 31  1  0
 31 32  1  0
 32 33  2  0
 22 34  2  0
 16 35  2  0
 35 36  1  0
 36 37  2  0
 37 38  1  0
 12  7  1  0
 37 14  1  0
 34 18  1  0
 33 29  1  0
M  END
>  <Compound_ID>  (436) 
CHEMBL3357448

>  <Molecule Name>  (436) 
nan

>  <Molecular Weight>  (436) 
555.06

>  <AlogP>  (436) 
4.03

>  <Smiles>  (436) 
CC(C)S(=O)(=O)c1ccccc1Nc1nc(Nc2cccc(NC(=O)[C@@H](N)Cc3c[nH]cn3)c2)ncc1Cl

>  <Standard Type>  (436) 
IC50

>  <Standard Relation>  (436) 
'='

>  <Standard Units>  (436) 
nM

>  <Standard Value>  (436) 
28.0

>  <Assay ChEMBL ID>  (436) 
CHEMBL3364272

>  <Assay Description>  (436) 
Inhibition of ALK (unknown origin) after 60 mins by ELISA

>  <BAO Format ID>  (436) 
BAO_0000357

>  <BAO Label>  (436) 
single protein format

>  <Assay Organism>  (436) 
Homo sapiens

>  <Target ChEMBL ID>  (436) 
CHEMBL4247

>  <Target Name>  (436) 
ALK tyrosine kinase receptor

>  <Target Organism>  (436) 
Homo sapiens

>  <Target Type>  (436) 
SINGLE PROTEIN

>  <Document ChEMBL ID>  (436) 
CHEMBL3351234

>  <Source Description>  (436) 
Scientific Literature

>  <Document Journal>  (436) 
J Med Chem

>  <Document Year>  (436) 
2015.0

>  <Active>  (436) 
1.0

>  <bits>  (436) 
<rdkit.DataStructs.cDataStructs.ExplicitBitVect object at 0x000002422F230820>

>  <Group>  (436) 
G2

$$$$

     RDKit          2D

 36 39  0  0  0  0  0  0  0  0999 V2000
    3.7500   -1.2990    0.0000 C   0  0  0  0  0  0  0  0  0  0  0  0
    3.0000    0.0000    0.0000 O   0  0  0  0  0  0  0  0  0  0  0  0
    1.5000    0.0000    0.0000 C   0  0  0  0  0  0  0  0  0  0  0  0
    0.7500   -1.2990    0.0000 C   0  0  0  0  0  0  0  0  0  0  0  0
   -0.7500   -1.2990    0.0000 C   0  0  0  0  0  0  0  0  0  0  0  0
   -1.5000   -2.5981    0.0000 N   0  0  0  0  0  0  0  0  0  0  0  0
   -3.0000   -2.5981    0.0000 C   0  0  0  0  0  0  0  0  0  0  0  0
   -3.7500   -3.8971    0.0000 C   0  0  0  0  0  0  0  0  0  0  0  0
   -3.0000   -5.1962    0.0000 N   0  0  0  0  0  0  0  0  0  0  0  0
   -3.7500   -6.4952    0.0000 C   0  0  0  0  0  0  0  0  0  0  0  0
   -5.2500   -6.4952    0.0000 C   0  0  0  0  0  0  0  0  0  0  0  0
   -3.0000   -7.7942    0.0000 O   0  0  0  0  0  0  0  0  0  0  0  0
   -1.5000   -5.1962    0.0000 C   0  0  0  0  0  0  0  0  0  0  0  0
   -0.7500   -3.8971    0.0000 C   0  0  0  0  0  0  0  0  0  0  0  0
   -1.5000    0.0000    0.0000 C   0  0  0  0  0  0  0  0  0  0  0  0
   -0.7500    1.2990    0.0000 C   0  0  0  0  0  0  0  0  0  0  0  0
    0.7500    1.2990    0.0000 C   0  0  0  0  0  0  0  0  0  0  0  0
    1.5000    2.5981    0.0000 N   0  0  0  0  0  0  0  0  0  0  0  0
    3.0000    2.5981    0.0000 C   0  0  0  0  0  0  0  0  0  0  0  0
    3.7500    1.2990    0.0000 N   0  0  0  0  0  0  0  0  0  0  0  0
    5.2500    1.2990    0.0000 C   0  0  0  0  0  0  0  0  0  0  0  0
    6.0000    2.5981    0.0000 C   0  0  0  0  0  0  0  0  0  0  0  0
    7.5000    2.5981    0.0000 Cl  0  0  0  0  0  0  0  0  0  0  0  0
    5.2500    3.8971    0.0000 C   0  0  0  0  0  0  0  0  0  0  0  0
    6.0000    5.1962    0.0000 N   0  0  0  0  0  0  0  0  0  0  0  0
    5.2500    6.4952    0.0000 C   0  0  0  0  0  0  0  0  0  0  0  0
    3.7500    6.4952    0.0000 C   0  0  0  0  0  0  0  0  0  0  0  0
    3.0000    7.7942    0.0000 C   0  0  0  0  0  0  0  0  0  0  0  0
    3.7500    9.0933    0.0000 C   0  0  0  0  0  0  0  0  0  0  0  0
    5.2500    9.0933    0.0000 C   0  0  0  0  0  0  0  0  0  0  0  0
    6.0000    7.7942    0.0000 C   0  0  0  0  0  0  0  0  0  0  0  0
    7.5000    7.7942    0.0000 P   0  0  0  0  0  0  0  0  0  0  0  0
    7.5000    6.2942    0.0000 C   0  0  0  0  0  0  0  0  0  0  0  0
    7.5000    9.2942    0.0000 C   0  0  0  0  0  0  0  0  0  0  0  0
    9.0000    7.7942    0.0000 O   0  0  0  0  0  0  0  0  0  0  0  0
    3.7500    3.8971    0.0000 N   0  0  0  0  0  0  0  0  0  0  0  0
  1  2  1  0
  2  3  1  0
  3  4  2  0
  4  5  1  0
  5  6  1  0
  6  7  1  0
  7  8  1  0
  8  9  1  0
  9 10  1  0
 10 11  1  0
 10 12  2  0
  9 13  1  0
 13 14  1  0
  5 15  2  0
 15 16  1  0
 16 17  2  0
 17 18  1  0
 18 19  1  0
 19 20  2  0
 20 21  1  0
 21 22  2  0
 22 23  1  0
 22 24  1  0
 24 25  1  0
 25 26  1  0
 26 27  2  0
 27 28  1  0
 28 29  2  0
 29 30  1  0
 30 31  2  0
 31 32  1  0
 32 33  1  0
 32 34  1  0
 32 35  2  0
 24 36  2  0
 17  3  1  0
 36 19  1  0
 14  6  1  0
 31 26  1  0
M  END
>  <Compound_ID>  (437) 
CHEMBL3824007

>  <Molecule Name>  (437) 
nan

>  <Molecular Weight>  (437) 
528.98

>  <AlogP>  (437) 
4.54

>  <Smiles>  (437) 
COc1cc(N2CCN(C(C)=O)CC2)ccc1Nc1ncc(Cl)c(Nc2ccccc2P(C)(C)=O)n1

>  <Standard Type>  (437) 
IC50

>  <Standard Relation>  (437) 
'='

>  <Standard Units>  (437) 
nM

>  <Standard Value>  (437) 
0.59

>  <Assay ChEMBL ID>  (437) 
CHEMBL3824709

>  <Assay Description>  (437) 
Inhibition of human ALK using poly[Glu:Tyr] (4:1) as substrate and [gamma-33P]ATP measured after 1 hr

>  <BAO Format ID>  (437) 
BAO_0000357

>  <BAO Label>  (437) 
single protein format

>  <Assay Organism>  (437) 
Homo sapiens

>  <Target ChEMBL ID>  (437) 
CHEMBL4247

>  <Target Name>  (437) 
ALK tyrosine kinase receptor

>  <Target Organism>  (437) 
Homo sapiens

>  <Target Type>  (437) 
SINGLE PROTEIN

>  <Document ChEMBL ID>  (437) 
CHEMBL3822358

>  <Source Description>  (437) 
Scientific Literature

>  <Document Journal>  (437) 
J Med Chem

>  <Document Year>  (437) 
2016.0

>  <Active>  (437) 
1.0

>  <bits>  (437) 
<rdkit.DataStructs.cDataStructs.ExplicitBitVect object at 0x000002422F231EE0>

>  <Group>  (437) 
G2

$$$$

     RDKit          2D

 37 40  0  0  0  0  0  0  0  0999 V2000
   -3.7500    3.8971    0.0000 C   0  0  0  0  0  0  0  0  0  0  0  0
   -2.2500    3.8971    0.0000 C   0  0  0  0  0  0  0  0  0  0  0  0
   -1.5000    5.1962    0.0000 C   0  0  0  0  0  0  0  0  0  0  0  0
   -1.5000    2.5981    0.0000 S   0  0  0  0  0  0  0  0  0  0  0  0
   -0.2010    3.3481    0.0000 O   0  0  0  0  0  0  0  0  0  0  0  0
   -2.7990    1.8481    0.0000 O   0  0  0  0  0  0  0  0  0  0  0  0
   -0.7500    1.2990    0.0000 C   0  0  0  0  0  0  0  0  0  0  0  0
   -1.5000   -0.0000    0.0000 C   0  0  0  0  0  0  0  0  0  0  0  0
   -0.7500   -1.2990    0.0000 C   0  0  0  0  0  0  0  0  0  0  0  0
    0.7500   -1.2990    0.0000 C   0  0  0  0  0  0  0  0  0  0  0  0
    1.5000   -0.0000    0.0000 C   0  0  0  0  0  0  0  0  0  0  0  0
    0.7500    1.2990    0.0000 C   0  0  0  0  0  0  0  0  0  0  0  0
    1.5000    2.5981    0.0000 N   0  0  0  0  0  0  0  0  0  0  0  0
    3.0000    2.5981    0.0000 C   0  0  0  0  0  0  0  0  0  0  0  0
    3.7500    1.2990    0.0000 N   0  0  0  0  0  0  0  0  0  0  0  0
    5.2500    1.2990    0.0000 C   0  0  0  0  0  0  0  0  0  0  0  0
    6.0000   -0.0000    0.0000 N   0  0  0  0  0  0  0  0  0  0  0  0
    7.5000   -0.0000    0.0000 C   0  0  0  0  0  0  0  0  0  0  0  0
    8.2500   -1.2990    0.0000 C   0  0  0  0  0  0  0  0  0  0  0  0
    9.7500   -1.2990    0.0000 C   0  0  0  0  0  0  0  0  0  0  0  0
   10.5000   -0.0000    0.0000 C   0  0  0  0  0  0  0  0  0  0  0  0
    9.7500    1.2990    0.0000 C   0  0  0  0  0  0  0  0  0  0  0  0
   10.5000    2.5981    0.0000 N   0  0  0  0  0  0  0  0  0  0  0  0
   12.0000    2.5981    0.0000 C   0  0  0  0  0  0  0  0  0  0  0  0
   12.7500    1.2990    0.0000 O   0  0  0  0  0  0  0  0  0  0  0  0
   12.7500    3.8971    0.0000 C   0  0  0  0  0  0  0  0  0  0  0  0
   14.2500    3.8971    0.0000 N   0  0  0  0  0  0  0  0  0  0  0  0
   15.0000    2.5981    0.0000 C   0  0  0  0  0  0  0  0  0  0  0  0
   16.5000    2.5981    0.0000 C   0  0  0  0  0  0  0  0  0  0  0  0
   17.2500    3.8971    0.0000 N   0  0  0  0  0  0  0  0  0  0  0  0
   16.5000    5.1962    0.0000 C   0  0  0  0  0  0  0  0  0  0  0  0
   15.0000    5.1962    0.0000 C   0  0  0  0  0  0  0  0  0  0  0  0
    8.2500    1.2990    0.0000 C   0  0  0  0  0  0  0  0  0  0  0  0
    6.0000    2.5981    0.0000 N   0  0  0  0  0  0  0  0  0  0  0  0
    5.2500    3.8971    0.0000 C   0  0  0  0  0  0  0  0  0  0  0  0
    3.7500    3.8971    0.0000 C   0  0  0  0  0  0  0  0  0  0  0  0
    3.0000    5.1962    0.0000 Cl  0  0  0  0  0  0  0  0  0  0  0  0
  1  2  1  0
  2  3  1  0
  2  4  1  0
  4  5  2  0
  4  6  2  0
  4  7  1  0
  7  8  2  0
  8  9  1  0
  9 10  2  0
 10 11  1  0
 11 12  2  0
 12 13  1  0
 13 14  1  0
 14 15  2  0
 15 16  1  0
 16 17  1  0
 17 18  1  0
 18 19  2  0
 19 20  1  0
 20 21  2  0
 21 22  1  0
 22 23  1  0
 23 24  1  0
 24 25  2  0
 24 26  1  0
 26 27  1  0
 27 28  1  0
 28 29  1  0
 29 30  1  0
 30 31  1  0
 31 32  1  0
 22 33  2  0
 16 34  2  0
 34 35  1  0
 35 36  2  0
 36 37  1  0
 12  7  1  0
 36 14  1  0
 33 18  1  0
 32 27  1  0
M  END
>  <Compound_ID>  (438) 
CHEMBL3357455

>  <Molecule Name>  (438) 
nan

>  <Molecular Weight>  (438) 
544.08

>  <AlogP>  (438) 
3.64

>  <Smiles>  (438) 
CC(C)S(=O)(=O)c1ccccc1Nc1nc(Nc2cccc(NC(=O)CN3CCNCC3)c2)ncc1Cl

>  <Standard Type>  (438) 
IC50

>  <Standard Relation>  (438) 
'='

>  <Standard Units>  (438) 
nM

>  <Standard Value>  (438) 
2.5

>  <Assay ChEMBL ID>  (438) 
CHEMBL3364272

>  <Assay Description>  (438) 
Inhibition of ALK (unknown origin) after 60 mins by ELISA

>  <BAO Format ID>  (438) 
BAO_0000357

>  <BAO Label>  (438) 
single protein format

>  <Assay Organism>  (438) 
Homo sapiens

>  <Target ChEMBL ID>  (438) 
CHEMBL4247

>  <Target Name>  (438) 
ALK tyrosine kinase receptor

>  <Target Organism>  (438) 
Homo sapiens

>  <Target Type>  (438) 
SINGLE PROTEIN

>  <Document ChEMBL ID>  (438) 
CHEMBL3351234

>  <Source Description>  (438) 
Scientific Literature

>  <Document Journal>  (438) 
J Med Chem

>  <Document Year>  (438) 
2015.0

>  <Active>  (438) 
1.0

>  <bits>  (438) 
<rdkit.DataStructs.cDataStructs.ExplicitBitVect object at 0x000002422F231FC0>

>  <Group>  (438) 
G2

$$$$

     RDKit          2D

 38 42  0  0  0  0  0  0  0  0999 V2000
    3.7500   -1.2990    0.0000 C   0  0  0  0  0  0  0  0  0  0  0  0
    3.0000    0.0000    0.0000 O   0  0  0  0  0  0  0  0  0  0  0  0
    1.5000    0.0000    0.0000 C   0  0  0  0  0  0  0  0  0  0  0  0
    0.7500   -1.2990    0.0000 C   0  0  0  0  0  0  0  0  0  0  0  0
   -0.7500   -1.2990    0.0000 C   0  0  0  0  0  0  0  0  0  0  0  0
   -1.5000   -2.5981    0.0000 N   0  0  0  0  0  0  0  0  0  0  0  0
   -3.0000   -2.5981    0.0000 C   0  0  0  0  0  0  0  0  0  0  0  0
   -3.7500   -3.8971    0.0000 C   0  0  0  0  0  0  0  0  0  0  0  0
   -3.0000   -5.1962    0.0000 C   0  0  0  0  0  0  0  0  0  0  0  0
   -3.7500   -6.4952    0.0000 N   0  0  0  0  0  0  0  0  0  0  0  0
   -5.2500   -6.4952    0.0000 C   0  0  0  0  0  0  0  0  0  0  0  0
   -6.0000   -7.7942    0.0000 C   0  0  0  0  0  0  0  0  0  0  0  0
   -5.2500   -9.0933    0.0000 N   0  0  0  0  0  0  0  0  0  0  0  0
   -6.0000  -10.3923    0.0000 C   0  0  0  0  0  0  0  0  0  0  0  0
   -3.7500   -9.0933    0.0000 C   0  0  0  0  0  0  0  0  0  0  0  0
   -3.0000   -7.7942    0.0000 C   0  0  0  0  0  0  0  0  0  0  0  0
   -1.5000   -5.1962    0.0000 C   0  0  0  0  0  0  0  0  0  0  0  0
   -0.7500   -3.8971    0.0000 C   0  0  0  0  0  0  0  0  0  0  0  0
   -1.5000    0.0000    0.0000 C   0  0  0  0  0  0  0  0  0  0  0  0
   -0.7500    1.2990    0.0000 C   0  0  0  0  0  0  0  0  0  0  0  0
    0.7500    1.2990    0.0000 C   0  0  0  0  0  0  0  0  0  0  0  0
    1.5000    2.5981    0.0000 N   0  0  0  0  0  0  0  0  0  0  0  0
    3.0000    2.5981    0.0000 C   0  0  0  0  0  0  0  0  0  0  0  0
    3.7500    1.2990    0.0000 N   0  0  0  0  0  0  0  0  0  0  0  0
    5.2500    1.2990    0.0000 C   0  0  0  0  0  0  0  0  0  0  0  0
    6.0000    2.5981    0.0000 C   0  0  0  0  0  0  0  0  0  0  0  0
    7.5000    2.5981    0.0000 Cl  0  0  0  0  0  0  0  0  0  0  0  0
    5.2500    3.8971    0.0000 C   0  0  0  0  0  0  0  0  0  0  0  0
    6.0000    5.1962    0.0000 N   0  0  0  0  0  0  0  0  0  0  0  0
    5.2500    6.4952    0.0000 C   0  0  0  0  0  0  0  0  0  0  0  0
    6.0000    7.7942    0.0000 C   0  0  0  0  0  0  0  0  0  0  0  0
    5.2500    9.0933    0.0000 C   0  0  0  0  0  0  0  0  0  0  0  0
    3.7500    9.0933    0.0000 C   0  0  0  0  0  0  0  0  0  0  0  0
    3.0000    7.7942    0.0000 C   0  0  0  0  0  0  0  0  0  0  0  0
    3.7500    6.4952    0.0000 C   0  0  0  0  0  0  0  0  0  0  0  0
    3.0000    5.1962    0.0000 O   0  0  0  0  0  0  0  0  0  0  0  0
    1.5000    5.1962    0.0000 C   0  0  0  0  0  0  0  0  0  0  0  0
    3.7500    3.8971    0.0000 N   0  0  0  0  0  0  0  0  0  0  0  0
  1  2  1  0
  2  3  1  0
  3  4  2  0
  4  5  1  0
  5  6  1  0
  6  7  1  0
  7  8  1  0
  8  9  1  0
  9 10  1  0
 10 11  1  0
 11 12  1  0
 12 13  1  0
 13 14  1  0
 13 15  1  0
 15 16  1  0
  9 17  1  0
 17 18  1  0
  5 19  2  0
 19 20  1  0
 20 21  2  0
 21 22  1  0
 22 23  1  0
 23 24  2  0
 24 25  1  0
 25 26  2  0
 26 27  1  0
 26 28  1  0
 28 29  1  0
 29 30  1  0
 30 31  2  0
 31 32  1  0
 32 33  2  0
 33 34  1  0
 34 35  2  0
 35 36  1  0
 36 37  1  0
 28 38  2  0
 21  3  1  0
 38 23  1  0
 18  6  1  0
 35 30  1  0
 16 10  1  0
M  END
>  <Compound_ID>  (439) 
CHEMBL3823045

>  <Molecule Name>  (439) 
nan

>  <Molecular Weight>  (439) 
538.1

>  <AlogP>  (439) 
4.85

>  <Smiles>  (439) 
COc1cc(N2CCC(N3CCN(C)CC3)CC2)ccc1Nc1ncc(Cl)c(Nc2ccccc2OC)n1

>  <Standard Type>  (439) 
IC50

>  <Standard Relation>  (439) 
'='

>  <Standard Units>  (439) 
nM

>  <Standard Value>  (439) 
1.88

>  <Assay ChEMBL ID>  (439) 
CHEMBL3824709

>  <Assay Description>  (439) 
Inhibition of human ALK using poly[Glu:Tyr] (4:1) as substrate and [gamma-33P]ATP measured after 1 hr

>  <BAO Format ID>  (439) 
BAO_0000357

>  <BAO Label>  (439) 
single protein format

>  <Assay Organism>  (439) 
Homo sapiens

>  <Target ChEMBL ID>  (439) 
CHEMBL4247

>  <Target Name>  (439) 
ALK tyrosine kinase receptor

>  <Target Organism>  (439) 
Homo sapiens

>  <Target Type>  (439) 
SINGLE PROTEIN

>  <Document ChEMBL ID>  (439) 
CHEMBL3822358

>  <Source Description>  (439) 
Scientific Literature

>  <Document Journal>  (439) 
J Med Chem

>  <Document Year>  (439) 
2016.0

>  <Active>  (439) 
1.0

>  <bits>  (439) 
<rdkit.DataStructs.cDataStructs.ExplicitBitVect object at 0x000002422F231CB0>

>  <Group>  (439) 
G2

$$$$

     RDKit          2D

 42 46  0  0  0  0  0  0  0  0999 V2000
   -0.2010    4.8481    0.0000 C   0  0  0  0  0  0  0  0  0  0  0  0
   -0.2010    3.3481    0.0000 C   0  0  0  0  0  0  0  0  0  0  0  0
   -1.5000    2.5981    0.0000 P   0  0  0  0  0  0  0  0  0  0  0  0
   -2.2500    3.8971    0.0000 O   0  0  0  0  0  0  0  0  0  0  0  0
   -2.7990    1.8481    0.0000 C   0  0  0  0  0  0  0  0  0  0  0  0
   -4.0981    2.5981    0.0000 C   0  0  0  0  0  0  0  0  0  0  0  0
   -0.7500    1.2990    0.0000 C   0  0  0  0  0  0  0  0  0  0  0  0
   -1.5000   -0.0000    0.0000 C   0  0  0  0  0  0  0  0  0  0  0  0
   -0.7500   -1.2990    0.0000 C   0  0  0  0  0  0  0  0  0  0  0  0
    0.7500   -1.2990    0.0000 C   0  0  0  0  0  0  0  0  0  0  0  0
    1.5000   -0.0000    0.0000 C   0  0  0  0  0  0  0  0  0  0  0  0
    0.7500    1.2990    0.0000 C   0  0  0  0  0  0  0  0  0  0  0  0
    1.5000    2.5981    0.0000 N   0  0  0  0  0  0  0  0  0  0  0  0
    3.0000    2.5981    0.0000 C   0  0  0  0  0  0  0  0  0  0  0  0
    3.7500    1.2990    0.0000 N   0  0  0  0  0  0  0  0  0  0  0  0
    5.2500    1.2990    0.0000 C   0  0  0  0  0  0  0  0  0  0  0  0
    6.0000   -0.0000    0.0000 N   0  0  0  0  0  0  0  0  0  0  0  0
    7.5000   -0.0000    0.0000 C   0  0  0  0  0  0  0  0  0  0  0  0
    8.2500   -1.2990    0.0000 C   0  0  0  0  0  0  0  0  0  0  0  0
    9.7500   -1.2990    0.0000 C   0  0  0  0  0  0  0  0  0  0  0  0
   10.5000   -0.0000    0.0000 C   0  0  0  0  0  0  0  0  0  0  0  0
   12.0000   -0.0000    0.0000 N   0  0  0  0  0  0  0  0  0  0  0  0
   12.7500   -1.2990    0.0000 C   0  0  0  0  0  0  0  0  0  0  0  0
   14.2500   -1.2990    0.0000 C   0  0  0  0  0  0  0  0  0  0  0  0
   15.0000   -0.0000    0.0000 C   0  0  0  0  0  0  0  0  0  0  0  0
   16.5000   -0.0000    0.0000 N   0  0  0  0  0  0  0  0  0  0  0  0
   17.2500   -1.2990    0.0000 C   0  0  0  0  0  0  0  0  0  0  0  0
   18.7500   -1.2990    0.0000 C   0  0  0  0  0  0  0  0  0  0  0  0
   19.5000   -0.0000    0.0000 N   0  0  0  0  0  0  0  0  0  0  0  0
   21.0000   -0.0000    0.0000 C   0  0  0  0  0  0  0  0  0  0  0  0
   18.7500    1.2990    0.0000 C   0  0  0  0  0  0  0  0  0  0  0  0
   17.2500    1.2990    0.0000 C   0  0  0  0  0  0  0  0  0  0  0  0
   14.2500    1.2990    0.0000 C   0  0  0  0  0  0  0  0  0  0  0  0
   12.7500    1.2990    0.0000 C   0  0  0  0  0  0  0  0  0  0  0  0
    9.7500    1.2990    0.0000 C   0  0  0  0  0  0  0  0  0  0  0  0
    8.2500    1.2990    0.0000 C   0  0  0  0  0  0  0  0  0  0  0  0
    7.5000    2.5981    0.0000 O   0  0  0  0  0  0  0  0  0  0  0  0
    8.2500    3.8971    0.0000 C   0  0  0  0  0  0  0  0  0  0  0  0
    6.0000    2.5981    0.0000 N   0  0  0  0  0  0  0  0  0  0  0  0
    5.2500    3.8971    0.0000 C   0  0  0  0  0  0  0  0  0  0  0  0
    3.7500    3.8971    0.0000 C   0  0  0  0  0  0  0  0  0  0  0  0
    3.0000    5.1962    0.0000 Cl  0  0  0  0  0  0  0  0  0  0  0  0
  1  2  1  0
  2  3  1  0
  3  4  2  0
  3  5  1  0
  5  6  1  0
  3  7  1  0
  7  8  2  0
  8  9  1  0
  9 10  2  0
 10 11  1  0
 11 12  2  0
 12 13  1  0
 13 14  1  0
 14 15  2  0
 15 16  1  0
 16 17  1  0
 17 18  1  0
 18 19  2  0
 19 20  1  0
 20 21  2  0
 21 22  1  0
 22 23  1  0
 23 24  1  0
 24 25  1  0
 25 26  1  0
 26 27  1  0
 27 28  1  0
 28 29  1  0
 29 30  1  0
 29 31  1  0
 31 32  1  0
 25 33  1  0
 33 34  1  0
 21 35  1  0
 35 36  2  0
 36 37  1  0
 37 38  1  0
 16 39  2  0
 39 40  1  0
 40 41  2  0
 41 42  1  0
 12  7  1  0
 41 14  1  0
 36 18  1  0
 34 22  1  0
 32 26  1  0
M  END
>  <Compound_ID>  (440) 
CHEMBL3824308

>  <Molecule Name>  (440) 
nan

>  <Molecular Weight>  (440) 
612.16

>  <AlogP>  (440) 
5.87

>  <Smiles>  (440) 
CCP(=O)(CC)c1ccccc1Nc1nc(Nc2ccc(N3CCC(N4CCN(C)CC4)CC3)cc2OC)ncc1Cl

>  <Standard Type>  (440) 
IC50

>  <Standard Relation>  (440) 
'='

>  <Standard Units>  (440) 
nM

>  <Standard Value>  (440) 
0.12

>  <Assay ChEMBL ID>  (440) 
CHEMBL3824709

>  <Assay Description>  (440) 
Inhibition of human ALK using poly[Glu:Tyr] (4:1) as substrate and [gamma-33P]ATP measured after 1 hr

>  <BAO Format ID>  (440) 
BAO_0000357

>  <BAO Label>  (440) 
single protein format

>  <Assay Organism>  (440) 
Homo sapiens

>  <Target ChEMBL ID>  (440) 
CHEMBL4247

>  <Target Name>  (440) 
ALK tyrosine kinase receptor

>  <Target Organism>  (440) 
Homo sapiens

>  <Target Type>  (440) 
SINGLE PROTEIN

>  <Document ChEMBL ID>  (440) 
CHEMBL3822358

>  <Source Description>  (440) 
Scientific Literature

>  <Document Journal>  (440) 
J Med Chem

>  <Document Year>  (440) 
2016.0

>  <Active>  (440) 
1.0

>  <bits>  (440) 
<rdkit.DataStructs.cDataStructs.ExplicitBitVect object at 0x000002422F232030>

>  <Group>  (440) 
G2

$$$$

     RDKit          2D

 40 44  0  0  0  0  0  0  0  0999 V2000
    3.7500   -1.2990    0.0000 C   0  0  0  0  0  0  0  0  0  0  0  0
    3.0000    0.0000    0.0000 O   0  0  0  0  0  0  0  0  0  0  0  0
    1.5000    0.0000    0.0000 C   0  0  0  0  0  0  0  0  0  0  0  0
    0.7500   -1.2990    0.0000 C   0  0  0  0  0  0  0  0  0  0  0  0
   -0.7500   -1.2990    0.0000 C   0  0  0  0  0  0  0  0  0  0  0  0
   -1.5000   -2.5981    0.0000 N   0  0  0  0  0  0  0  0  0  0  0  0
   -3.0000   -2.5981    0.0000 C   0  0  0  0  0  0  0  0  0  0  0  0
   -3.7500   -3.8971    0.0000 C   0  0  0  0  0  0  0  0  0  0  0  0
   -3.0000   -5.1962    0.0000 C   0  0  0  0  0  0  0  0  0  0  0  0
   -3.7500   -6.4952    0.0000 N   0  0  0  0  0  0  0  0  0  0  0  0
   -5.2500   -6.4952    0.0000 C   0  0  0  0  0  0  0  0  0  0  0  0
   -6.0000   -7.7942    0.0000 C   0  0  0  0  0  0  0  0  0  0  0  0
   -5.2500   -9.0933    0.0000 N   0  0  0  0  0  0  0  0  0  0  0  0
   -6.0000  -10.3923    0.0000 C   0  0  0  0  0  0  0  0  0  0  0  0
   -3.7500   -9.0933    0.0000 C   0  0  0  0  0  0  0  0  0  0  0  0
   -3.0000   -7.7942    0.0000 C   0  0  0  0  0  0  0  0  0  0  0  0
   -1.5000   -5.1962    0.0000 C   0  0  0  0  0  0  0  0  0  0  0  0
   -0.7500   -3.8971    0.0000 C   0  0  0  0  0  0  0  0  0  0  0  0
   -1.5000    0.0000    0.0000 C   0  0  0  0  0  0  0  0  0  0  0  0
   -0.7500    1.2990    0.0000 C   0  0  0  0  0  0  0  0  0  0  0  0
    0.7500    1.2990    0.0000 C   0  0  0  0  0  0  0  0  0  0  0  0
    1.5000    2.5981    0.0000 N   0  0  0  0  0  0  0  0  0  0  0  0
    3.0000    2.5981    0.0000 C   0  0  0  0  0  0  0  0  0  0  0  0
    3.7500    1.2990    0.0000 N   0  0  0  0  0  0  0  0  0  0  0  0
    5.2500    1.2990    0.0000 C   0  0  0  0  0  0  0  0  0  0  0  0
    6.0000    2.5981    0.0000 C   0  0  0  0  0  0  0  0  0  0  0  0
    7.5000    2.5981    0.0000 C   0  0  0  0  0  0  0  0  0  0  0  0
    5.2500    3.8971    0.0000 C   0  0  0  0  0  0  0  0  0  0  0  0
    6.0000    5.1962    0.0000 N   0  0  0  0  0  0  0  0  0  0  0  0
    5.2500    6.4952    0.0000 C   0  0  0  0  0  0  0  0  0  0  0  0
    3.7500    6.4952    0.0000 C   0  0  0  0  0  0  0  0  0  0  0  0
    3.0000    7.7942    0.0000 C   0  0  0  0  0  0  0  0  0  0  0  0
    3.7500    9.0933    0.0000 C   0  0  0  0  0  0  0  0  0  0  0  0
    5.2500    9.0933    0.0000 C   0  0  0  0  0  0  0  0  0  0  0  0
    6.0000    7.7942    0.0000 C   0  0  0  0  0  0  0  0  0  0  0  0
    7.5000    7.7942    0.0000 P   0  0  0  0  0  0  0  0  0  0  0  0
    7.5000    6.2942    0.0000 C   0  0  0  0  0  0  0  0  0  0  0  0
    7.5000    9.2942    0.0000 C   0  0  0  0  0  0  0  0  0  0  0  0
    9.0000    7.7942    0.0000 O   0  0  0  0  0  0  0  0  0  0  0  0
    3.7500    3.8971    0.0000 N   0  0  0  0  0  0  0  0  0  0  0  0
  1  2  1  0
  2  3  1  0
  3  4  2  0
  4  5  1  0
  5  6  1  0
  6  7  1  0
  7  8  1  0
  8  9  1  0
  9 10  1  0
 10 11  1  0
 11 12  1  0
 12 13  1  0
 13 14  1  0
 13 15  1  0
 15 16  1  0
  9 17  1  0
 17 18  1  0
  5 19  2  0
 19 20  1  0
 20 21  2  0
 21 22  1  0
 22 23  1  0
 23 24  2  0
 24 25  1  0
 25 26  2  0
 26 27  1  0
 26 28  1  0
 28 29  1  0
 29 30  1  0
 30 31  2  0
 31 32  1  0
 32 33  2  0
 33 34  1  0
 34 35  2  0
 35 36  1  0
 36 37  1  0
 36 38  1  0
 36 39  2  0
 28 40  2  0
 21  3  1  0
 40 23  1  0
 18  6  1  0
 35 30  1  0
 16 10  1  0
M  END
>  <Compound_ID>  (441) 
CHEMBL3823577

>  <Molecule Name>  (441) 
nan

>  <Molecular Weight>  (441) 
563.69

>  <AlogP>  (441) 
4.75

>  <Smiles>  (441) 
COc1cc(N2CCC(N3CCN(C)CC3)CC2)ccc1Nc1ncc(C)c(Nc2ccccc2P(C)(C)=O)n1

>  <Standard Type>  (441) 
IC50

>  <Standard Relation>  (441) 
'='

>  <Standard Units>  (441) 
nM

>  <Standard Value>  (441) 
0.42

>  <Assay ChEMBL ID>  (441) 
CHEMBL3824709

>  <Assay Description>  (441) 
Inhibition of human ALK using poly[Glu:Tyr] (4:1) as substrate and [gamma-33P]ATP measured after 1 hr

>  <BAO Format ID>  (441) 
BAO_0000357

>  <BAO Label>  (441) 
single protein format

>  <Assay Organism>  (441) 
Homo sapiens

>  <Target ChEMBL ID>  (441) 
CHEMBL4247

>  <Target Name>  (441) 
ALK tyrosine kinase receptor

>  <Target Organism>  (441) 
Homo sapiens

>  <Target Type>  (441) 
SINGLE PROTEIN

>  <Document ChEMBL ID>  (441) 
CHEMBL3822358

>  <Source Description>  (441) 
Scientific Literature

>  <Document Journal>  (441) 
J Med Chem

>  <Document Year>  (441) 
2016.0

>  <Active>  (441) 
1.0

>  <bits>  (441) 
<rdkit.DataStructs.cDataStructs.ExplicitBitVect object at 0x000002422F231A10>

>  <Group>  (441) 
G2

$$$$

     RDKit          2D

 28 32  0  0  0  0  0  0  0  0999 V2000
    4.6740   -4.8322    0.0000 C   0  0  0  0  0  0  0  0  0  0  0  0
    3.3037   -4.2221    0.0000 N   0  0  0  0  0  0  0  0  0  0  0  0
    2.9918   -2.7549    0.0000 C   0  0  0  0  0  0  0  0  0  0  0  0
    1.5000   -2.5981    0.0000 C   0  0  0  0  0  0  0  0  0  0  0  0
    0.7500   -1.2990    0.0000 C   0  0  0  0  0  0  0  0  0  0  0  0
    1.5000    0.0000    0.0000 C   0  0  0  0  0  0  0  0  0  0  0  0
    0.7500    1.2990    0.0000 C   0  0  0  0  0  0  0  0  0  0  0  0
   -0.7500    1.2990    0.0000 C   0  0  0  0  0  0  0  0  0  0  0  0
   -1.5000    0.0000    0.0000 C   0  0  0  0  0  0  0  0  0  0  0  0
   -0.7500   -1.2990    0.0000 C   0  0  0  0  0  0  0  0  0  0  0  0
   -3.0000    0.0000    0.0000 C   0  0  0  0  0  0  0  0  0  0  0  0
   -4.4095   -0.5130    0.0000 C   0  0  0  0  0  0  0  0  0  0  0  0
   -2.7395   -1.4772    0.0000 C   0  0  0  0  0  0  0  0  0  0  0  0
   -3.7500    1.2990    0.0000 C   0  0  0  0  0  0  0  0  0  0  0  0
   -5.2172    1.6109    0.0000 N   0  0  0  0  0  0  0  0  0  0  0  0
   -5.3740    3.1027    0.0000 C   0  0  0  0  0  0  0  0  0  0  0  0
   -6.5875    3.9844    0.0000 C   0  0  0  0  0  0  0  0  0  0  0  0
   -6.4307    5.4761    0.0000 C   0  0  0  0  0  0  0  0  0  0  0  0
   -7.6443    6.3578    0.0000 C   0  0  0  0  0  0  0  0  0  0  0  0
   -8.8578    7.2395    0.0000 N   0  0  0  0  0  0  0  0  0  0  0  0
   -5.0604    6.0863    0.0000 C   0  0  0  0  0  0  0  0  0  0  0  0
   -3.8469    5.2046    0.0000 C   0  0  0  0  0  0  0  0  0  0  0  0
   -4.0037    3.7128    0.0000 C   0  0  0  0  0  0  0  0  0  0  0  0
   -3.0000    2.5981    0.0000 C   0  0  0  0  0  0  0  0  0  0  0  0
   -1.5000    2.5981    0.0000 C   0  0  0  0  0  0  0  0  0  0  0  0
   -0.7500    3.8971    0.0000 O   0  0  0  0  0  0  0  0  0  0  0  0
    0.8899   -3.9684    0.0000 C   0  0  0  0  0  0  0  0  0  0  0  0
    2.0046   -4.9721    0.0000 N   0  0  0  0  0  0  0  0  0  0  0  0
  1  2  1  0
  2  3  1  0
  3  4  2  0
  4  5  1  0
  5  6  2  0
  6  7  1  0
  7  8  2  0
  8  9  1  0
  9 10  2  0
  9 11  1  0
 11 12  1  0
 11 13  1  0
 11 14  1  0
 14 15  1  0
 15 16  1  0
 16 17  2  0
 17 18  1  0
 18 19  1  0
 19 20  3  0
 18 21  2  0
 21 22  1  0
 22 23  2  0
 23 24  1  0
 24 25  1  0
 25 26  2  0
  4 27  1  0
 27 28  2  0
 28  2  1  0
 10  5  1  0
 24 14  2  0
 25  8  1  0
 23 16  1  0
M  END
>  <Compound_ID>  (442) 
CHEMBL3951557

>  <Molecule Name>  (442) 
nan

>  <Molecular Weight>  (442) 
366.42

>  <AlogP>  (442) 
4.31

>  <Smiles>  (442) 
Cn1cc(-c2ccc3c(c2)C(C)(C)c2[nH]c4cc(C#N)ccc4c2C3=O)cn1

>  <Standard Type>  (442) 
IC50

>  <Standard Relation>  (442) 
'='

>  <Standard Units>  (442) 
nM

>  <Standard Value>  (442) 
5.437

>  <Assay ChEMBL ID>  (442) 
CHEMBL3887074

>  <Assay Description>  (442) 
Inhibition Assay: ALK-inhibiting activity was measured by following an activity of inhibiting phosphorylation by biotinylated peptide (EGPWLEEEEEAYGWMDF). For the detection of phosphorylation of the biotinylated peptide, time-resolved fluorescence measurement was performed using an anti-phosphorylated tyrosine antibody labeled with europium cryptate and streptavidin conjugated to XL665, i.e., an allophycocyanin derivative.

>  <BAO Format ID>  (442) 
BAO_0000357

>  <BAO Label>  (442) 
single protein format

>  <Assay Organism>  (442) 
Homo sapiens

>  <Target ChEMBL ID>  (442) 
CHEMBL4247

>  <Target Name>  (442) 
ALK tyrosine kinase receptor

>  <Target Organism>  (442) 
Homo sapiens

>  <Target Type>  (442) 
SINGLE PROTEIN

>  <Document ChEMBL ID>  (442) 
CHEMBL3886150

>  <Source Description>  (442) 
BindingDB Database

>  <Document Journal>  (442) 
nan

>  <Document Year>  (442) 
2015.0

>  <Active>  (442) 
1.0

>  <bits>  (442) 
<rdkit.DataStructs.cDataStructs.ExplicitBitVect object at 0x000002422F233220>

>  <Group>  (442) 
G2

$$$$

     RDKit          2D

 45 48  0  0  0  0  0  0  0  0999 V2000
    3.0000    0.0000    0.0000 C   0  0  0  0  0  0  0  0  0  0  0  0
    1.5000    0.0000    0.0000 C   0  0  0  0  0  0  0  0  0  0  0  0
    0.7500   -1.2990    0.0000 C   0  0  0  0  0  0  0  0  0  0  0  0
   -0.7500   -1.2990    0.0000 C   0  0  0  0  0  0  0  0  0  0  0  0
   -1.5000   -2.5981    0.0000 N   0  0  0  0  0  0  0  0  0  0  0  0
   -3.0000   -2.5981    0.0000 C   0  0  0  0  0  0  0  0  0  0  0  0
   -3.7500   -1.2990    0.0000 N   0  0  0  0  0  0  0  0  0  0  0  0
   -5.2500   -1.2990    0.0000 C   0  0  0  0  0  0  0  0  0  0  0  0
   -6.0000   -2.5981    0.0000 C   0  0  0  0  0  0  0  0  0  0  0  0
   -7.5000   -2.5981    0.0000 Cl  0  0  0  0  0  0  0  0  0  0  0  0
   -5.2500   -3.8971    0.0000 C   0  0  0  0  0  0  0  0  0  0  0  0
   -6.0000   -5.1962    0.0000 N   0  0  0  0  0  0  0  0  0  0  0  0
   -5.2500   -6.4952    0.0000 C   0  0  0  0  0  0  0  0  0  0  0  0
   -3.7500   -6.4952    0.0000 C   0  0  0  0  0  0  0  0  0  0  0  0
   -3.0000   -7.7942    0.0000 C   0  0  0  0  0  0  0  0  0  0  0  0
   -3.7500   -9.0933    0.0000 C   0  0  0  0  0  0  0  0  0  0  0  0
   -5.2500   -9.0933    0.0000 C   0  0  0  0  0  0  0  0  0  0  0  0
   -6.0000   -7.7942    0.0000 C   0  0  0  0  0  0  0  0  0  0  0  0
   -7.5000   -7.7942    0.0000 S   0  0  0  0  0  0  0  0  0  0  0  0
   -7.5000   -6.2942    0.0000 O   0  0  0  0  0  0  0  0  0  0  0  0
   -7.5000   -9.2942    0.0000 O   0  0  0  0  0  0  0  0  0  0  0  0
   -9.0000   -7.7942    0.0000 C   0  0  0  0  0  0  0  0  0  0  0  0
   -9.7500   -6.4952    0.0000 C   0  0  0  0  0  0  0  0  0  0  0  0
   -9.7500   -9.0933    0.0000 C   0  0  0  0  0  0  0  0  0  0  0  0
   -3.7500   -3.8971    0.0000 N   0  0  0  0  0  0  0  0  0  0  0  0
   -1.5000    0.0000    0.0000 C   0  0  0  0  0  0  0  0  0  0  0  0
   -3.0000    0.0000    0.0000 O   0  0  0  0  0  0  0  0  0  0  0  0
   -3.7500    1.2990    0.0000 C   0  0  0  0  0  0  0  0  0  0  0  0
   -5.2500    1.2990    0.0000 C   0  0  0  0  0  0  0  0  0  0  0  0
   -3.0000    2.5981    0.0000 C   0  0  0  0  0  0  0  0  0  0  0  0
   -0.7500    1.2990    0.0000 C   0  0  0  0  0  0  0  0  0  0  0  0
    0.7500    1.2990    0.0000 C   0  0  0  0  0  0  0  0  0  0  0  0
    1.5000    2.5981    0.0000 C   0  0  0  0  0  0  0  0  0  0  0  0
    3.0000    2.5981    0.0000 C   0  0  0  0  0  0  0  0  0  0  0  0
    3.7500    3.8971    0.0000 C   0  0  0  0  0  0  0  0  0  0  0  0
    3.0000    5.1962    0.0000 N   0  0  0  0  0  0  0  0  0  0  0  0
    3.7500    6.4952    0.0000 C   0  0  0  0  0  0  0  0  0  0  0  0
    5.2500    6.4952    0.0000 C   0  0  0  0  0  0  0  0  0  0  0  0
    6.0000    5.1962    0.0000 O   0  0  0  0  0  0  0  0  0  0  0  0
    6.0000    7.7942    0.0000 C   0  0  0  0  0  0  0  0  0  0  0  0
    6.7500    9.0933    0.0000 F   0  0  0  0  0  0  0  0  0  0  0  0
    7.2990    7.0442    0.0000 F   0  0  0  0  0  0  0  0  0  0  0  0
    4.7010    8.5442    0.0000 F   0  0  0  0  0  0  0  0  0  0  0  0
    1.5000    5.1962    0.0000 C   0  0  0  0  0  0  0  0  0  0  0  0
    0.7500    3.8971    0.0000 C   0  0  0  0  0  0  0  0  0  0  0  0
  1  2  1  0
  2  3  2  0
  3  4  1  0
  4  5  1  0
  5  6  1  0
  6  7  2  0
  7  8  1  0
  8  9  2  0
  9 10  1  0
  9 11  1  0
 11 12  1  0
 12 13  1  0
 13 14  2  0
 14 15  1  0
 15 16  2  0
 16 17  1  0
 17 18  2  0
 18 19  1  0
 19 20  2  0
 19 21  2  0
 19 22  1  0
 22 23  1  0
 22 24  1  0
 11 25  2  0
  4 26  2  0
 26 27  1  0
 27 28  1  0
 28 29  1  0
 28 30  1  0
 26 31  1  0
 31 32  2  0
 32 33  1  0
 33 34  1  0
 34 35  1  0
 35 36  1  0
 36 37  1  0
 37 38  1  0
 38 39  1  6
 38 40  1  0
 40 41  1  0
 40 42  1  0
 40 43  1  0
 36 44  1  0
 44 45  1  0
 32  2  1  0
 45 33  1  0
 25  6  1  0
 18 13  1  0
M  END
>  <Compound_ID>  (443) 
CHEMBL3651829

>  <Molecule Name>  (443) 
nan

>  <Molecular Weight>  (443) 
670.2

>  <AlogP>  (443) 
7.00

>  <Smiles>  (443) 
Cc1cc(Nc2ncc(Cl)c(Nc3ccccc3S(=O)(=O)C(C)C)n2)c(OC(C)C)cc1C1CCN(C[C@@H](O)C(F)(F)F)CC1

>  <Standard Type>  (443) 
IC50

>  <Standard Relation>  (443) 
'='

>  <Standard Units>  (443) 
nM

>  <Standard Value>  (443) 
88.0

>  <Assay ChEMBL ID>  (443) 
CHEMBL3705165

>  <Assay Description>  (443) 
Enzyme Assay: The inhibition of ALK tyrosine kinase activity may be demonstrated using known methods, for example using the recombinant kinase domain of the ALK in analogy to the VEGF-R kinase assay described in J. Wood et al. Cancer Res. 60, 2178-2189 (2000).

>  <BAO Format ID>  (443) 
BAO_0000357

>  <BAO Label>  (443) 
single protein format

>  <Assay Organism>  (443) 
Homo sapiens

>  <Target ChEMBL ID>  (443) 
CHEMBL4247

>  <Target Name>  (443) 
ALK tyrosine kinase receptor

>  <Target Organism>  (443) 
Homo sapiens

>  <Target Type>  (443) 
SINGLE PROTEIN

>  <Document ChEMBL ID>  (443) 
CHEMBL3638924

>  <Source Description>  (443) 
BindingDB Database

>  <Document Journal>  (443) 
nan

>  <Document Year>  (443) 
2013.0

>  <Active>  (443) 
1.0

>  <bits>  (443) 
<rdkit.DataStructs.cDataStructs.ExplicitBitVect object at 0x000002422F233300>

>  <Group>  (443) 
G2

$$$$

     RDKit          2D

 38 42  0  0  0  0  0  0  0  0999 V2000
   -4.5577    0.2855    0.0000 C   0  0  0  0  0  0  0  0  0  0  0  0
   -3.4430   -0.7182    0.0000 O   0  0  0  0  0  0  0  0  0  0  0  0
   -3.7548   -2.1855    0.0000 C   0  0  0  0  0  0  0  0  0  0  0  0
   -5.1814   -2.6490    0.0000 C   0  0  0  0  0  0  0  0  0  0  0  0
   -5.4933   -4.1162    0.0000 C   0  0  0  0  0  0  0  0  0  0  0  0
   -4.3786   -5.1199    0.0000 C   0  0  0  0  0  0  0  0  0  0  0  0
   -2.9520   -4.6564    0.0000 C   0  0  0  0  0  0  0  0  0  0  0  0
   -2.6401   -3.1891    0.0000 C   0  0  0  0  0  0  0  0  0  0  0  0
   -1.2135   -2.7256    0.0000 C   0  0  0  0  0  0  0  0  0  0  0  0
   -0.0000   -3.6073    0.0000 C   0  0  0  0  0  0  0  0  0  0  0  0
    0.0000   -5.1073    0.0000 C   0  0  0  0  0  0  0  0  0  0  0  0
    1.2990   -5.8573    0.0000 N   0  0  0  0  0  0  0  0  0  0  0  0
   -1.2990   -5.8573    0.0000 O   0  0  0  0  0  0  0  0  0  0  0  0
    1.2135   -2.7256    0.0000 S   0  0  0  0  0  0  0  0  0  0  0  0
    0.7500   -1.2990    0.0000 C   0  0  0  0  0  0  0  0  0  0  0  0
    1.5000    0.0000    0.0000 C   0  0  0  0  0  0  0  0  0  0  0  0
    0.7500    1.2990    0.0000 N   0  0  0  0  0  0  0  0  0  0  0  0
   -0.7500    1.2990    0.0000 C   0  0  0  0  0  0  0  0  0  0  0  0
   -1.5000    2.5981    0.0000 N   0  0  0  0  0  0  0  0  0  0  0  0
   -0.7500    3.8971    0.0000 C   0  0  0  0  0  0  0  0  0  0  0  0
    0.7500    3.8971    0.0000 C   0  0  0  0  0  0  0  0  0  0  0  0
    1.5000    5.1962    0.0000 C   0  0  0  0  0  0  0  0  0  0  0  0
    0.7500    6.4952    0.0000 C   0  0  0  0  0  0  0  0  0  0  0  0
    1.5000    7.7942    0.0000 C   0  0  0  0  0  0  0  0  0  0  0  0
    3.0000    7.7942    0.0000 C   0  0  0  0  0  0  0  0  0  0  0  0
    3.7500    9.0933    0.0000 C   0  0  0  0  0  0  0  0  0  0  0  0
    3.0000   10.3923    0.0000 N   0  0  0  0  0  0  0  0  0  0  0  0
    3.7500   11.6913    0.0000 C   0  0  0  0  0  0  0  0  0  0  0  0
    1.5000   10.3923    0.0000 C   0  0  0  0  0  0  0  0  0  0  0  0
    0.7500    9.0933    0.0000 C   0  0  0  0  0  0  0  0  0  0  0  0
   -0.7500    6.4952    0.0000 C   0  0  0  0  0  0  0  0  0  0  0  0
   -1.5000    5.1962    0.0000 C   0  0  0  0  0  0  0  0  0  0  0  0
   -3.0000    5.1962    0.0000 O   0  0  0  0  0  0  0  0  0  0  0  0
   -3.7500    6.4952    0.0000 C   0  0  0  0  0  0  0  0  0  0  0  0
   -5.2500    6.4952    0.0000 C   0  0  0  0  0  0  0  0  0  0  0  0
   -3.0000    7.7942    0.0000 C   0  0  0  0  0  0  0  0  0  0  0  0
   -1.5000    0.0000    0.0000 N   0  0  0  0  0  0  0  0  0  0  0  0
   -0.7500   -1.2990    0.0000 C   0  0  0  0  0  0  0  0  0  0  0  0
  1  2  1  0
  2  3  1  0
  3  4  2  0
  4  5  1  0
  5  6  2  0
  6  7  1  0
  7  8  2  0
  8  9  1  0
  9 10  2  0
 10 11  1  0
 11 12  1  0
 11 13  2  0
 10 14  1  0
 14 15  1  0
 15 16  2  0
 16 17  1  0
 17 18  2  0
 18 19  1  0
 19 20  1  0
 20 21  2  0
 21 22  1  0
 22 23  2  0
 23 24  1  0
 24 25  1  0
 25 26  1  0
 26 27  1  0
 27 28  1  0
 27 29  1  0
 29 30  1  0
 23 31  1  0
 31 32  2  0
 32 33  1  0
 33 34  1  0
 34 35  1  0
 34 36  1  0
 18 37  1  0
 37 38  2  0
  8  3  1  0
 38  9  1  0
 38 15  1  0
 32 20  1  0
 30 24  1  0
M  END
>  <Compound_ID>  (444) 
CHEMBL3669136

>  <Molecule Name>  (444) 
nan

>  <Molecular Weight>  (444) 
531.68

>  <AlogP>  (444) 
5.81

>  <Smiles>  (444) 
COc1ccccc1-c1c(C(N)=O)sc2cnc(Nc3ccc(C4CCN(C)CC4)cc3OC(C)C)nc12

>  <Standard Type>  (444) 
IC50

>  <Standard Relation>  (444) 
'='

>  <Standard Units>  (444) 
nM

>  <Standard Value>  (444) 
7.0

>  <Assay ChEMBL ID>  (444) 
CHEMBL3705810

>  <Assay Description>  (444) 
In Vitro Inhibition Assay: The reagents used have the following composition: Enzyme buffer (EB): 50 mM HEPES (pH: 7.0) (Sigma H7523), 100 mM NaCl (Sigma S7653), NaN.sub.3 at 0.01% (Sigma S8032), BSA at 0.005% (Sigma A2153), 0.05 mM sodium orthovanadate (Calbiochem 567540). Detection buffer (DB): 50 mM HEPES (pH: 7.0), BSA at 0.1%, 0.8 M KF (Fluka 60239), 20 mM EDTA (Sigma E5134).The peptide used is the one described in Biochemistry, 2005, 44, 8533-8542; A-21-K(biotin)NH.sub.2, obtained from NeoMPS (reference SP081233). All the HTRF reagents Mab PT66-K (61T66KLB) and streptavidin-XL665 (610SAXLB), and the SEB reagent, are purchased from Cisbio.The test is carried out in a 384-well plate (Greiner 784076). The serial dilutions are carried out in pure DMSO, and then an intermediate one-in-three dilution in water is carried out, with 1 microliter of each concentration being distributed, all these operations being performed using the Zephyr apparatus (Caliper Life Sciences).

>  <BAO Format ID>  (444) 
BAO_0000357

>  <BAO Label>  (444) 
single protein format

>  <Assay Organism>  (444) 
Homo sapiens

>  <Target ChEMBL ID>  (444) 
CHEMBL4247

>  <Target Name>  (444) 
ALK tyrosine kinase receptor

>  <Target Organism>  (444) 
Homo sapiens

>  <Target Type>  (444) 
SINGLE PROTEIN

>  <Document ChEMBL ID>  (444) 
CHEMBL3639289

>  <Source Description>  (444) 
BindingDB Database

>  <Document Journal>  (444) 
nan

>  <Document Year>  (444) 
2015.0

>  <Active>  (444) 
1.0

>  <bits>  (444) 
<rdkit.DataStructs.cDataStructs.ExplicitBitVect object at 0x000002422F233370>

>  <Group>  (444) 
G2

$$$$

     RDKit          2D

 26 29  0  0  0  0  0  0  0  0999 V2000
    2.6491   -3.5623    0.0000 C   0  0  0  0  0  0  0  0  0  0  0  0
    1.5000   -2.5981    0.0000 C   0  0  0  0  0  0  0  0  0  0  0  0
    2.6491   -1.6339    0.0000 C   0  0  0  0  0  0  0  0  0  0  0  0
    0.7500   -1.2990    0.0000 C   0  0  0  0  0  0  0  0  0  0  0  0
    1.5000    0.0000    0.0000 C   0  0  0  0  0  0  0  0  0  0  0  0
    0.7500    1.2990    0.0000 C   0  0  0  0  0  0  0  0  0  0  0  0
    1.5000    2.5981    0.0000 C   0  0  0  0  0  0  0  0  0  0  0  0
    0.7500    3.8971    0.0000 O   0  0  0  0  0  0  0  0  0  0  0  0
    3.0000    2.5981    0.0000 C   0  0  0  0  0  0  0  0  0  0  0  0
    3.7500    3.8971    0.0000 O   0  0  0  0  0  0  0  0  0  0  0  0
   -0.7500    1.2990    0.0000 C   0  0  0  0  0  0  0  0  0  0  0  0
   -1.5000    0.0000    0.0000 C   0  0  0  0  0  0  0  0  0  0  0  0
   -0.7500   -1.2990    0.0000 C   0  0  0  0  0  0  0  0  0  0  0  0
   -1.5000   -2.5981    0.0000 C   0  0  0  0  0  0  0  0  0  0  0  0
   -3.0000   -2.5981    0.0000 O   0  0  0  0  0  0  0  0  0  0  0  0
   -0.7500   -3.8971    0.0000 C   0  0  0  0  0  0  0  0  0  0  0  0
    0.7500   -3.8971    0.0000 C   0  0  0  0  0  0  0  0  0  0  0  0
    1.2135   -5.3237    0.0000 N   0  0  0  0  0  0  0  0  0  0  0  0
    0.0000   -6.2054    0.0000 C   0  0  0  0  0  0  0  0  0  0  0  0
   -0.1568   -7.6972    0.0000 C   0  0  0  0  0  0  0  0  0  0  0  0
   -1.5271   -8.3073    0.0000 C   0  0  0  0  0  0  0  0  0  0  0  0
   -1.6839   -9.7990    0.0000 C   0  0  0  0  0  0  0  0  0  0  0  0
   -1.8407  -11.2908    0.0000 N   0  0  0  0  0  0  0  0  0  0  0  0
   -2.7406   -7.4256    0.0000 C   0  0  0  0  0  0  0  0  0  0  0  0
   -2.5838   -5.9338    0.0000 C   0  0  0  0  0  0  0  0  0  0  0  0
   -1.2135   -5.3237    0.0000 C   0  0  0  0  0  0  0  0  0  0  0  0
  1  2  1  0
  2  3  1  0
  2  4  1  0
  4  5  2  0
  5  6  1  0
  6  7  1  0
  7  8  1  0
  7  9  1  0
  9 10  1  0
  6 11  2  0
 11 12  1  0
 12 13  2  0
 13 14  1  0
 14 15  2  0
 14 16  1  0
 16 17  2  0
 17 18  1  0
 18 19  1  0
 19 20  2  0
 20 21  1  0
 21 22  1  0
 22 23  3  0
 21 24  2  0
 24 25  1  0
 25 26  2  0
 17  2  1  0
 26 19  1  0
 13  4  1  0
 26 16  1  0
M  END
>  <Compound_ID>  (445) 
CHEMBL3942730

>  <Molecule Name>  (445) 
nan

>  <Molecular Weight>  (445) 
346.39

>  <AlogP>  (445) 
2.94

>  <Smiles>  (445) 
CC1(C)c2cc(C(O)CO)ccc2C(=O)c2c1[nH]c1cc(C#N)ccc21

>  <Standard Type>  (445) 
IC50

>  <Standard Relation>  (445) 
'='

>  <Standard Units>  (445) 
nM

>  <Standard Value>  (445) 
11.89

>  <Assay ChEMBL ID>  (445) 
CHEMBL3887074

>  <Assay Description>  (445) 
Inhibition Assay: ALK-inhibiting activity was measured by following an activity of inhibiting phosphorylation by biotinylated peptide (EGPWLEEEEEAYGWMDF). For the detection of phosphorylation of the biotinylated peptide, time-resolved fluorescence measurement was performed using an anti-phosphorylated tyrosine antibody labeled with europium cryptate and streptavidin conjugated to XL665, i.e., an allophycocyanin derivative.

>  <BAO Format ID>  (445) 
BAO_0000357

>  <BAO Label>  (445) 
single protein format

>  <Assay Organism>  (445) 
Homo sapiens

>  <Target ChEMBL ID>  (445) 
CHEMBL4247

>  <Target Name>  (445) 
ALK tyrosine kinase receptor

>  <Target Organism>  (445) 
Homo sapiens

>  <Target Type>  (445) 
SINGLE PROTEIN

>  <Document ChEMBL ID>  (445) 
CHEMBL3886150

>  <Source Description>  (445) 
BindingDB Database

>  <Document Journal>  (445) 
nan

>  <Document Year>  (445) 
2015.0

>  <Active>  (445) 
1.0

>  <bits>  (445) 
<rdkit.DataStructs.cDataStructs.ExplicitBitVect object at 0x000002422F233530>

>  <Group>  (445) 
G2

$$$$

     RDKit          2D

 30 34  0  0  0  0  0  0  0  0999 V2000
   -6.8516   -6.6578    0.0000 C   0  0  0  0  0  0  0  0  0  0  0  0
   -5.6381   -7.5395    0.0000 C   0  0  0  0  0  0  0  0  0  0  0  0
   -4.2677   -6.9294    0.0000 C   0  0  0  0  0  0  0  0  0  0  0  0
   -4.1110   -5.4376    0.0000 C   0  0  0  0  0  0  0  0  0  0  0  0
   -2.7406   -4.8275    0.0000 C   0  0  0  0  0  0  0  0  0  0  0  0
   -1.5271   -5.7092    0.0000 C   0  0  0  0  0  0  0  0  0  0  0  0
   -1.6839   -7.2010    0.0000 C   0  0  0  0  0  0  0  0  0  0  0  0
   -3.0542   -7.8111    0.0000 C   0  0  0  0  0  0  0  0  0  0  0  0
   -3.2110   -9.3029    0.0000 N   0  0  0  0  0  0  0  0  0  0  0  0
   -4.5813   -9.9130    0.0000 C   0  0  0  0  0  0  0  0  0  0  0  0
   -4.7381  -11.4047    0.0000 C   0  0  0  0  0  0  0  0  0  0  0  0
   -3.5246  -12.2864    0.0000 O   0  0  0  0  0  0  0  0  0  0  0  0
   -2.1543  -11.6763    0.0000 C   0  0  0  0  0  0  0  0  0  0  0  0
   -1.9975  -10.1845    0.0000 C   0  0  0  0  0  0  0  0  0  0  0  0
   -0.1568   -5.0991    0.0000 C   0  0  0  0  0  0  0  0  0  0  0  0
    1.3396   -4.9944    0.0000 C   0  0  0  0  0  0  0  0  0  0  0  0
    0.2061   -6.5545    0.0000 C   0  0  0  0  0  0  0  0  0  0  0  0
   -0.0000   -3.6073    0.0000 C   0  0  0  0  0  0  0  0  0  0  0  0
    1.2135   -2.7256    0.0000 N   0  0  0  0  0  0  0  0  0  0  0  0
    0.7500   -1.2990    0.0000 C   0  0  0  0  0  0  0  0  0  0  0  0
    1.5000    0.0000    0.0000 C   0  0  0  0  0  0  0  0  0  0  0  0
    0.7500    1.2990    0.0000 C   0  0  0  0  0  0  0  0  0  0  0  0
    1.5000    2.5981    0.0000 C   0  0  0  0  0  0  0  0  0  0  0  0
    2.2500    3.8971    0.0000 N   0  0  0  0  0  0  0  0  0  0  0  0
   -0.7500    1.2990    0.0000 C   0  0  0  0  0  0  0  0  0  0  0  0
   -1.5000    0.0000    0.0000 C   0  0  0  0  0  0  0  0  0  0  0  0
   -0.7500   -1.2990    0.0000 C   0  0  0  0  0  0  0  0  0  0  0  0
   -1.2135   -2.7256    0.0000 C   0  0  0  0  0  0  0  0  0  0  0  0
   -2.5838   -3.3357    0.0000 C   0  0  0  0  0  0  0  0  0  0  0  0
   -3.7974   -2.4540    0.0000 O   0  0  0  0  0  0  0  0  0  0  0  0
  1  2  2  0
  2  3  1  0
  3  4  2  0
  4  5  1  0
  5  6  2  0
  6  7  1  0
  7  8  2  0
  8  9  1  0
  9 10  1  0
 10 11  1  0
 11 12  1  0
 12 13  1  0
 13 14  1  0
  6 15  1  0
 15 16  1  0
 15 17  1  0
 15 18  1  0
 18 19  1  0
 19 20  1  0
 20 21  2  0
 21 22  1  0
 22 23  1  0
 23 24  3  0
 22 25  2  0
 25 26  1  0
 26 27  2  0
 27 28  1  0
 28 29  1  0
 29 30  2  0
  8  3  1  0
 14  9  1  0
 28 18  2  0
 29  5  1  0
 27 20  1  0
M  END
>  <Compound_ID>  (446) 
CHEMBL3892424

>  <Molecule Name>  (446) 
nan

>  <Molecular Weight>  (446) 
397.48

>  <AlogP>  (446) 
4.39

>  <Smiles>  (446) 
C=Cc1cc2c(cc1N1CCOCC1)C(C)(C)c1[nH]c3cc(C#N)ccc3c1C2=O

>  <Standard Type>  (446) 
IC50

>  <Standard Relation>  (446) 
'='

>  <Standard Units>  (446) 
nM

>  <Standard Value>  (446) 
2.052

>  <Assay ChEMBL ID>  (446) 
CHEMBL3887074

>  <Assay Description>  (446) 
Inhibition Assay: ALK-inhibiting activity was measured by following an activity of inhibiting phosphorylation by biotinylated peptide (EGPWLEEEEEAYGWMDF). For the detection of phosphorylation of the biotinylated peptide, time-resolved fluorescence measurement was performed using an anti-phosphorylated tyrosine antibody labeled with europium cryptate and streptavidin conjugated to XL665, i.e., an allophycocyanin derivative.

>  <BAO Format ID>  (446) 
BAO_0000357

>  <BAO Label>  (446) 
single protein format

>  <Assay Organism>  (446) 
Homo sapiens

>  <Target ChEMBL ID>  (446) 
CHEMBL4247

>  <Target Name>  (446) 
ALK tyrosine kinase receptor

>  <Target Organism>  (446) 
Homo sapiens

>  <Target Type>  (446) 
SINGLE PROTEIN

>  <Document ChEMBL ID>  (446) 
CHEMBL3886150

>  <Source Description>  (446) 
BindingDB Database

>  <Document Journal>  (446) 
nan

>  <Document Year>  (446) 
2015.0

>  <Active>  (446) 
1.0

>  <bits>  (446) 
<rdkit.DataStructs.cDataStructs.ExplicitBitVect object at 0x000002422F2335A0>

>  <Group>  (446) 
G2

$$$$

     RDKit          2D

 37 43  0  0  0  0  0  0  0  0999 V2000
    1.3396   -4.9944    0.0000 C   0  0  0  0  0  0  0  0  0  0  0  0
   -0.1568   -5.0991    0.0000 C   0  0  0  0  0  0  0  0  0  0  0  0
    0.2061   -6.5545    0.0000 C   0  0  0  0  0  0  0  0  0  0  0  0
   -1.5271   -5.7092    0.0000 C   0  0  0  0  0  0  0  0  0  0  0  0
   -1.6839   -7.2010    0.0000 C   0  0  0  0  0  0  0  0  0  0  0  0
   -3.0542   -7.8111    0.0000 C   0  0  0  0  0  0  0  0  0  0  0  0
   -3.2110   -9.3029    0.0000 N   0  0  0  0  0  0  0  0  0  0  0  0
   -4.5813   -9.9130    0.0000 C   0  0  0  0  0  0  0  0  0  0  0  0
   -4.7381  -11.4047    0.0000 C   0  0  0  0  0  0  0  0  0  0  0  0
   -3.5246  -12.2864    0.0000 N   0  0  0  0  0  0  0  0  0  0  0  0
   -3.6814  -13.7782    0.0000 C   0  0  0  0  0  0  0  0  0  0  0  0
   -4.8471  -14.7222    0.0000 C   0  0  0  0  0  0  0  0  0  0  0  0
   -3.9031  -15.8879    0.0000 O   0  0  0  0  0  0  0  0  0  0  0  0
   -2.7374  -14.9439    0.0000 C   0  0  0  0  0  0  0  0  0  0  0  0
   -2.1543  -11.6763    0.0000 C   0  0  0  0  0  0  0  0  0  0  0  0
   -1.9975  -10.1845    0.0000 C   0  0  0  0  0  0  0  0  0  0  0  0
   -4.2677   -6.9294    0.0000 C   0  0  0  0  0  0  0  0  0  0  0  0
   -5.6381   -7.5395    0.0000 C   0  0  0  0  0  0  0  0  0  0  0  0
   -7.0084   -8.1496    0.0000 C   0  0  0  0  0  0  0  0  0  0  0  0
   -8.3787   -8.7597    0.0000 C   0  0  0  0  0  0  0  0  0  0  0  0
   -9.2604   -9.9732    0.0000 C   0  0  0  0  0  0  0  0  0  0  0  0
   -9.8705   -8.6029    0.0000 C   0  0  0  0  0  0  0  0  0  0  0  0
   -4.1110   -5.4376    0.0000 C   0  0  0  0  0  0  0  0  0  0  0  0
   -2.7406   -4.8275    0.0000 C   0  0  0  0  0  0  0  0  0  0  0  0
   -2.5838   -3.3357    0.0000 C   0  0  0  0  0  0  0  0  0  0  0  0
   -3.7974   -2.4540    0.0000 O   0  0  0  0  0  0  0  0  0  0  0  0
   -1.2135   -2.7256    0.0000 C   0  0  0  0  0  0  0  0  0  0  0  0
   -0.0000   -3.6073    0.0000 C   0  0  0  0  0  0  0  0  0  0  0  0
    1.2135   -2.7256    0.0000 N   0  0  0  0  0  0  0  0  0  0  0  0
    0.7500   -1.2990    0.0000 C   0  0  0  0  0  0  0  0  0  0  0  0
    1.5000    0.0000    0.0000 C   0  0  0  0  0  0  0  0  0  0  0  0
    0.7500    1.2990    0.0000 C   0  0  0  0  0  0  0  0  0  0  0  0
    1.5000    2.5981    0.0000 C   0  0  0  0  0  0  0  0  0  0  0  0
    2.2500    3.8971    0.0000 N   0  0  0  0  0  0  0  0  0  0  0  0
   -0.7500    1.2990    0.0000 C   0  0  0  0  0  0  0  0  0  0  0  0
   -1.5000    0.0000    0.0000 C   0  0  0  0  0  0  0  0  0  0  0  0
   -0.7500   -1.2990    0.0000 C   0  0  0  0  0  0  0  0  0  0  0  0
  1  2  1  0
  2  3  1  0
  2  4  1  0
  4  5  2  0
  5  6  1  0
  6  7  1  0
  7  8  1  0
  8  9  1  0
  9 10  1  0
 10 11  1  0
 11 12  1  0
 12 13  1  0
 13 14  1  0
 10 15  1  0
 15 16  1  0
  6 17  2  0
 17 18  1  0
 18 19  3  0
 19 20  1  0
 20 21  1  0
 21 22  1  0
 17 23  1  0
 23 24  2  0
 24 25  1  0
 25 26  2  0
 25 27  1  0
 27 28  2  0
 28 29  1  0
 29 30  1  0
 30 31  2  0
 31 32  1  0
 32 33  1  0
 33 34  3  0
 32 35  2  0
 35 36  1  0
 36 37  2  0
 28  2  1  0
 37 30  1  0
 24  4  1  0
 37 27  1  0
 16  7  1  0
 22 20  1  0
 14 11  1  0
M  END
>  <Compound_ID>  (447) 
CHEMBL3919367

>  <Molecule Name>  (447) 
nan

>  <Molecular Weight>  (447) 
490.61

>  <AlogP>  (447) 
4.19

>  <Smiles>  (447) 
CC1(C)c2cc(N3CCN(C4COC4)CC3)c(C#CC3CC3)cc2C(=O)c2c1[nH]c1cc(C#N)ccc21

>  <Standard Type>  (447) 
IC50

>  <Standard Relation>  (447) 
'='

>  <Standard Units>  (447) 
nM

>  <Standard Value>  (447) 
0.881

>  <Assay ChEMBL ID>  (447) 
CHEMBL3887074

>  <Assay Description>  (447) 
Inhibition Assay: ALK-inhibiting activity was measured by following an activity of inhibiting phosphorylation by biotinylated peptide (EGPWLEEEEEAYGWMDF). For the detection of phosphorylation of the biotinylated peptide, time-resolved fluorescence measurement was performed using an anti-phosphorylated tyrosine antibody labeled with europium cryptate and streptavidin conjugated to XL665, i.e., an allophycocyanin derivative.

>  <BAO Format ID>  (447) 
BAO_0000357

>  <BAO Label>  (447) 
single protein format

>  <Assay Organism>  (447) 
Homo sapiens

>  <Target ChEMBL ID>  (447) 
CHEMBL4247

>  <Target Name>  (447) 
ALK tyrosine kinase receptor

>  <Target Organism>  (447) 
Homo sapiens

>  <Target Type>  (447) 
SINGLE PROTEIN

>  <Document ChEMBL ID>  (447) 
CHEMBL3886150

>  <Source Description>  (447) 
BindingDB Database

>  <Document Journal>  (447) 
nan

>  <Document Year>  (447) 
2015.0

>  <Active>  (447) 
1.0

>  <bits>  (447) 
<rdkit.DataStructs.cDataStructs.ExplicitBitVect object at 0x000002422F2333E0>

>  <Group>  (447) 
G2

$$$$

     RDKit          2D

 34 39  0  0  0  0  0  0  0  0999 V2000
   -8.1917  -10.4626    0.0000 C   0  0  0  0  0  0  0  0  0  0  0  0
   -7.4417   -9.1635    0.0000 N   0  0  0  0  0  0  0  0  0  0  0  0
   -5.9499   -9.0067    0.0000 C   0  0  0  0  0  0  0  0  0  0  0  0
   -5.6381   -7.5395    0.0000 C   0  0  0  0  0  0  0  0  0  0  0  0
   -4.2677   -6.9294    0.0000 C   0  0  0  0  0  0  0  0  0  0  0  0
   -4.1110   -5.4376    0.0000 C   0  0  0  0  0  0  0  0  0  0  0  0
   -2.7406   -4.8275    0.0000 C   0  0  0  0  0  0  0  0  0  0  0  0
   -1.5271   -5.7092    0.0000 C   0  0  0  0  0  0  0  0  0  0  0  0
   -1.6839   -7.2010    0.0000 C   0  0  0  0  0  0  0  0  0  0  0  0
   -3.0542   -7.8111    0.0000 C   0  0  0  0  0  0  0  0  0  0  0  0
   -3.2110   -9.3029    0.0000 N   0  0  0  0  0  0  0  0  0  0  0  0
   -4.5813   -9.9130    0.0000 C   0  0  0  0  0  0  0  0  0  0  0  0
   -4.7381  -11.4047    0.0000 C   0  0  0  0  0  0  0  0  0  0  0  0
   -3.5246  -12.2864    0.0000 O   0  0  0  0  0  0  0  0  0  0  0  0
   -2.1543  -11.6763    0.0000 C   0  0  0  0  0  0  0  0  0  0  0  0
   -1.9975  -10.1845    0.0000 C   0  0  0  0  0  0  0  0  0  0  0  0
   -0.1568   -5.0991    0.0000 C   0  0  0  0  0  0  0  0  0  0  0  0
    1.3396   -4.9944    0.0000 C   0  0  0  0  0  0  0  0  0  0  0  0
    0.2061   -6.5545    0.0000 C   0  0  0  0  0  0  0  0  0  0  0  0
   -0.0000   -3.6073    0.0000 C   0  0  0  0  0  0  0  0  0  0  0  0
    1.2135   -2.7256    0.0000 N   0  0  0  0  0  0  0  0  0  0  0  0
    0.7500   -1.2990    0.0000 C   0  0  0  0  0  0  0  0  0  0  0  0
    1.5000    0.0000    0.0000 C   0  0  0  0  0  0  0  0  0  0  0  0
    0.7500    1.2990    0.0000 C   0  0  0  0  0  0  0  0  0  0  0  0
    1.5000    2.5981    0.0000 C   0  0  0  0  0  0  0  0  0  0  0  0
    2.2500    3.8971    0.0000 N   0  0  0  0  0  0  0  0  0  0  0  0
   -0.7500    1.2990    0.0000 C   0  0  0  0  0  0  0  0  0  0  0  0
   -1.5000    0.0000    0.0000 C   0  0  0  0  0  0  0  0  0  0  0  0
   -0.7500   -1.2990    0.0000 C   0  0  0  0  0  0  0  0  0  0  0  0
   -1.2135   -2.7256    0.0000 C   0  0  0  0  0  0  0  0  0  0  0  0
   -2.5838   -3.3357    0.0000 C   0  0  0  0  0  0  0  0  0  0  0  0
   -3.7974   -2.4540    0.0000 O   0  0  0  0  0  0  0  0  0  0  0  0
   -6.9371   -6.7895    0.0000 C   0  0  0  0  0  0  0  0  0  0  0  0
   -8.0518   -7.7932    0.0000 N   0  0  0  0  0  0  0  0  0  0  0  0
  1  2  1  0
  2  3  1  0
  3  4  2  0
  4  5  1  0
  5  6  2  0
  6  7  1  0
  7  8  2  0
  8  9  1  0
  9 10  2  0
 10 11  1  0
 11 12  1  0
 12 13  1  0
 13 14  1  0
 14 15  1  0
 15 16  1  0
  8 17  1  0
 17 18  1  0
 17 19  1  0
 17 20  1  0
 20 21  1  0
 21 22  1  0
 22 23  2  0
 23 24  1  0
 24 25  1  0
 25 26  3  0
 24 27  2  0
 27 28  1  0
 28 29  2  0
 29 30  1  0
 30 31  1  0
 31 32  2  0
  4 33  1  0
 33 34  2  0
 34  2  1  0
 10  5  1  0
 16 11  1  0
 30 20  2  0
 31  7  1  0
 29 22  1  0
M  END
>  <Compound_ID>  (448) 
CHEMBL3929315

>  <Molecule Name>  (448) 
nan

>  <Molecular Weight>  (448) 
451.53

>  <AlogP>  (448) 
4.15

>  <Smiles>  (448) 
Cn1cc(-c2cc3c(cc2N2CCOCC2)C(C)(C)c2[nH]c4cc(C#N)ccc4c2C3=O)cn1

>  <Standard Type>  (448) 
IC50

>  <Standard Relation>  (448) 
'='

>  <Standard Units>  (448) 
nM

>  <Standard Value>  (448) 
0.81

>  <Assay ChEMBL ID>  (448) 
CHEMBL3887074

>  <Assay Description>  (448) 
Inhibition Assay: ALK-inhibiting activity was measured by following an activity of inhibiting phosphorylation by biotinylated peptide (EGPWLEEEEEAYGWMDF). For the detection of phosphorylation of the biotinylated peptide, time-resolved fluorescence measurement was performed using an anti-phosphorylated tyrosine antibody labeled with europium cryptate and streptavidin conjugated to XL665, i.e., an allophycocyanin derivative.

>  <BAO Format ID>  (448) 
BAO_0000357

>  <BAO Label>  (448) 
single protein format

>  <Assay Organism>  (448) 
Homo sapiens

>  <Target ChEMBL ID>  (448) 
CHEMBL4247

>  <Target Name>  (448) 
ALK tyrosine kinase receptor

>  <Target Organism>  (448) 
Homo sapiens

>  <Target Type>  (448) 
SINGLE PROTEIN

>  <Document ChEMBL ID>  (448) 
CHEMBL3886150

>  <Source Description>  (448) 
BindingDB Database

>  <Document Journal>  (448) 
nan

>  <Document Year>  (448) 
2015.0

>  <Active>  (448) 
1.0

>  <bits>  (448) 
<rdkit.DataStructs.cDataStructs.ExplicitBitVect object at 0x000002422F233920>

>  <Group>  (448) 
G2

$$$$

     RDKit          2D

 32 37  0  0  0  0  0  0  0  0999 V2000
    9.9485    0.1542    0.0000 N   0  0  0  0  0  0  0  0  0  0  0  0
    8.5782   -0.4559    0.0000 C   0  0  0  0  0  0  0  0  0  0  0  0
    7.2079   -1.0660    0.0000 C   0  0  0  0  0  0  0  0  0  0  0  0
    7.0511   -2.5578    0.0000 C   0  0  0  0  0  0  0  0  0  0  0  0
    5.6807   -3.1679    0.0000 C   0  0  0  0  0  0  0  0  0  0  0  0
    4.4672   -2.2862    0.0000 C   0  0  0  0  0  0  0  0  0  0  0  0
    3.0000   -2.5981    0.0000 C   0  0  0  0  0  0  0  0  0  0  0  0
    2.2500   -1.2990    0.0000 C   0  0  0  0  0  0  0  0  0  0  0  0
    3.2537   -0.1843    0.0000 N   0  0  0  0  0  0  0  0  0  0  0  0
    4.6240   -0.7944    0.0000 C   0  0  0  0  0  0  0  0  0  0  0  0
    5.9943   -0.1843    0.0000 C   0  0  0  0  0  0  0  0  0  0  0  0
    0.7500   -1.2990    0.0000 C   0  0  0  0  0  0  0  0  0  0  0  0
    1.5000    0.0000    0.0000 C   0  0  0  0  0  0  0  0  0  0  0  0
    0.7500    1.2990    0.0000 C   0  0  0  0  0  0  0  0  0  0  0  0
   -0.7500    1.2990    0.0000 O   0  0  0  0  0  0  0  0  0  0  0  0
   -1.5000    0.0000    0.0000 C   0  0  0  0  0  0  0  0  0  0  0  0
   -0.7500   -1.2990    0.0000 C   0  0  0  0  0  0  0  0  0  0  0  0
   -0.0000   -2.5981    0.0000 C   0  0  0  0  0  0  0  0  0  0  0  0
   -1.5000   -2.5981    0.0000 C   0  0  0  0  0  0  0  0  0  0  0  0
   -2.2500   -3.8971    0.0000 C   0  0  0  0  0  0  0  0  0  0  0  0
   -3.7500   -3.8971    0.0000 O   0  0  0  0  0  0  0  0  0  0  0  0
   -4.5000   -2.5981    0.0000 C   0  0  0  0  0  0  0  0  0  0  0  0
   -3.7500   -1.2990    0.0000 C   0  0  0  0  0  0  0  0  0  0  0  0
   -4.5000    0.0000    0.0000 C   0  0  0  0  0  0  0  0  0  0  0  0
   -6.0000    0.0000    0.0000 N   0  0  0  0  0  0  0  0  0  0  0  0
   -6.7500   -1.2990    0.0000 C   0  0  0  0  0  0  0  0  0  0  0  0
   -6.0000   -2.5981    0.0000 C   0  0  0  0  0  0  0  0  0  0  0  0
   -1.5000   -5.1962    0.0000 C   0  0  0  0  0  0  0  0  0  0  0  0
   -0.0000   -5.1962    0.0000 C   0  0  0  0  0  0  0  0  0  0  0  0
    0.7500   -3.8971    0.0000 C   0  0  0  0  0  0  0  0  0  0  0  0
    2.2500   -3.8971    0.0000 C   0  0  0  0  0  0  0  0  0  0  0  0
    3.0000   -5.1962    0.0000 O   0  0  0  0  0  0  0  0  0  0  0  0
  1  2  3  0
  2  3  1  0
  3  4  2  0
  4  5  1  0
  5  6  2  0
  6  7  1  0
  7  8  2  0
  8  9  1  0
  9 10  1  0
 10 11  2  0
  8 12  1  0
 12 13  1  0
 13 14  1  0
 14 15  1  0
 15 16  1  0
 16 17  1  0
 12 18  1  0
 18 19  2  0
 19 20  1  0
 20 21  1  0
 21 22  1  0
 22 23  1  0
 23 24  1  0
 24 25  1  0
 25 26  1  0
 26 27  1  0
 20 28  2  0
 28 29  1  0
 29 30  2  0
 30 31  1  0
 31 32  2  0
 11  3  1  0
 17 12  1  0
 30 18  1  0
 10  6  1  0
 27 22  1  0
 31  7  1  0
M  END
>  <Compound_ID>  (449) 
CHEMBL3901152

>  <Molecule Name>  (449) 
nan

>  <Molecular Weight>  (449) 
427.5

>  <AlogP>  (449) 
3.81

>  <Smiles>  (449) 
N#Cc1ccc2c3c([nH]c2c1)C1(CCOCC1)c1cc(OC2CCNCC2)ccc1C3=O

>  <Standard Type>  (449) 
IC50

>  <Standard Relation>  (449) 
'='

>  <Standard Units>  (449) 
nM

>  <Standard Value>  (449) 
3.907

>  <Assay ChEMBL ID>  (449) 
CHEMBL3887074

>  <Assay Description>  (449) 
Inhibition Assay: ALK-inhibiting activity was measured by following an activity of inhibiting phosphorylation by biotinylated peptide (EGPWLEEEEEAYGWMDF). For the detection of phosphorylation of the biotinylated peptide, time-resolved fluorescence measurement was performed using an anti-phosphorylated tyrosine antibody labeled with europium cryptate and streptavidin conjugated to XL665, i.e., an allophycocyanin derivative.

>  <BAO Format ID>  (449) 
BAO_0000357

>  <BAO Label>  (449) 
single protein format

>  <Assay Organism>  (449) 
Homo sapiens

>  <Target ChEMBL ID>  (449) 
CHEMBL4247

>  <Target Name>  (449) 
ALK tyrosine kinase receptor

>  <Target Organism>  (449) 
Homo sapiens

>  <Target Type>  (449) 
SINGLE PROTEIN

>  <Document ChEMBL ID>  (449) 
CHEMBL3886150

>  <Source Description>  (449) 
BindingDB Database

>  <Document Journal>  (449) 
nan

>  <Document Year>  (449) 
2015.0

>  <Active>  (449) 
1.0

>  <bits>  (449) 
<rdkit.DataStructs.cDataStructs.ExplicitBitVect object at 0x000002422F2337D0>

>  <Group>  (449) 
G2

$$$$

     RDKit          2D

 29 32  0  0  0  0  0  0  0  0999 V2000
    8.2500   -3.8971    0.0000 C   0  0  0  0  0  0  0  0  0  0  0  0
    7.5000   -2.5981    0.0000 C   0  0  0  0  0  0  0  0  0  0  0  0
    6.0000   -2.5981    0.0000 O   0  0  0  0  0  0  0  0  0  0  0  0
    5.2500   -1.2990    0.0000 C   0  0  0  0  0  0  0  0  0  0  0  0
    6.0000    0.0000    0.0000 O   0  0  0  0  0  0  0  0  0  0  0  0
    3.7500   -1.2990    0.0000 C   0  0  0  0  0  0  0  0  0  0  0  0
    3.0000    0.0000    0.0000 O   0  0  0  0  0  0  0  0  0  0  0  0
    1.5000    0.0000    0.0000 C   0  0  0  0  0  0  0  0  0  0  0  0
    0.7500   -1.2990    0.0000 C   0  0  0  0  0  0  0  0  0  0  0  0
   -0.7500   -1.2990    0.0000 C   0  0  0  0  0  0  0  0  0  0  0  0
   -1.5000    0.0000    0.0000 C   0  0  0  0  0  0  0  0  0  0  0  0
   -0.7500    1.2990    0.0000 C   0  0  0  0  0  0  0  0  0  0  0  0
    0.7500    1.2990    0.0000 C   0  0  0  0  0  0  0  0  0  0  0  0
   -1.5000    2.5981    0.0000 C   0  0  0  0  0  0  0  0  0  0  0  0
   -1.7605    4.0753    0.0000 C   0  0  0  0  0  0  0  0  0  0  0  0
   -0.0905    3.1111    0.0000 C   0  0  0  0  0  0  0  0  0  0  0  0
   -3.0000    2.5981    0.0000 C   0  0  0  0  0  0  0  0  0  0  0  0
   -4.0037    3.7128    0.0000 N   0  0  0  0  0  0  0  0  0  0  0  0
   -5.3740    3.1027    0.0000 C   0  0  0  0  0  0  0  0  0  0  0  0
   -6.7443    3.7128    0.0000 C   0  0  0  0  0  0  0  0  0  0  0  0
   -7.9579    2.8311    0.0000 C   0  0  0  0  0  0  0  0  0  0  0  0
   -9.3282    3.4412    0.0000 C   0  0  0  0  0  0  0  0  0  0  0  0
  -10.6985    4.0513    0.0000 N   0  0  0  0  0  0  0  0  0  0  0  0
   -7.8011    1.3393    0.0000 C   0  0  0  0  0  0  0  0  0  0  0  0
   -6.4307    0.7292    0.0000 C   0  0  0  0  0  0  0  0  0  0  0  0
   -5.2172    1.6109    0.0000 C   0  0  0  0  0  0  0  0  0  0  0  0
   -3.7500    1.2990    0.0000 C   0  0  0  0  0  0  0  0  0  0  0  0
   -3.0000    0.0000    0.0000 C   0  0  0  0  0  0  0  0  0  0  0  0
   -3.7500   -1.2990    0.0000 O   0  0  0  0  0  0  0  0  0  0  0  0
  1  2  1  0
  2  3  1  0
  3  4  1  0
  4  5  2  0
  4  6  1  0
  6  7  1  0
  7  8  1  0
  8  9  2  0
  9 10  1  0
 10 11  2  0
 11 12  1  0
 12 13  2  0
 12 14  1  0
 14 15  1  0
 14 16  1  0
 14 17  1  0
 17 18  1  0
 18 19  1  0
 19 20  2  0
 20 21  1  0
 21 22  1  0
 22 23  3  0
 21 24  2  0
 24 25  1  0
 25 26  2  0
 26 27  1  0
 27 28  1  0
 28 29  2  0
 13  8  1  0
 27 17  2  0
 28 11  1  0
 26 19  1  0
M  END
>  <Compound_ID>  (450) 
CHEMBL3934856

>  <Molecule Name>  (450) 
nan

>  <Molecular Weight>  (450) 
388.42

>  <AlogP>  (450) 
3.85

>  <Smiles>  (450) 
CCOC(=O)COc1ccc2c(c1)C(C)(C)c1[nH]c3cc(C#N)ccc3c1C2=O

>  <Standard Type>  (450) 
IC50

>  <Standard Relation>  (450) 
'='

>  <Standard Units>  (450) 
nM

>  <Standard Value>  (450) 
29.47

>  <Assay ChEMBL ID>  (450) 
CHEMBL3887074

>  <Assay Description>  (450) 
Inhibition Assay: ALK-inhibiting activity was measured by following an activity of inhibiting phosphorylation by biotinylated peptide (EGPWLEEEEEAYGWMDF). For the detection of phosphorylation of the biotinylated peptide, time-resolved fluorescence measurement was performed using an anti-phosphorylated tyrosine antibody labeled with europium cryptate and streptavidin conjugated to XL665, i.e., an allophycocyanin derivative.

>  <BAO Format ID>  (450) 
BAO_0000357

>  <BAO Label>  (450) 
single protein format

>  <Assay Organism>  (450) 
Homo sapiens

>  <Target ChEMBL ID>  (450) 
CHEMBL4247

>  <Target Name>  (450) 
ALK tyrosine kinase receptor

>  <Target Organism>  (450) 
Homo sapiens

>  <Target Type>  (450) 
SINGLE PROTEIN

>  <Document ChEMBL ID>  (450) 
CHEMBL3886150

>  <Source Description>  (450) 
BindingDB Database

>  <Document Journal>  (450) 
nan

>  <Document Year>  (450) 
2015.0

>  <Active>  (450) 
1.0

>  <bits>  (450) 
<rdkit.DataStructs.cDataStructs.ExplicitBitVect object at 0x000002422F233A70>

>  <Group>  (450) 
G2

$$$$

     RDKit          2D

 30 34  0  0  0  0  0  0  0  0999 V2000
    2.6491   -3.5623    0.0000 C   0  0  0  0  0  0  0  0  0  0  0  0
    1.5000   -2.5981    0.0000 C   0  0  0  0  0  0  0  0  0  0  0  0
    2.6491   -1.6339    0.0000 C   0  0  0  0  0  0  0  0  0  0  0  0
    0.7500   -1.2990    0.0000 C   0  0  0  0  0  0  0  0  0  0  0  0
    1.5000    0.0000    0.0000 C   0  0  0  0  0  0  0  0  0  0  0  0
    0.7500    1.2990    0.0000 C   0  0  0  0  0  0  0  0  0  0  0  0
    1.5000    2.5981    0.0000 N   0  0  0  0  0  0  0  0  0  0  0  0
    3.0000    2.5981    0.0000 C   0  0  0  0  0  0  0  0  0  0  0  0
    3.7500    3.8971    0.0000 C   0  0  0  0  0  0  0  0  0  0  0  0
    3.0000    5.1962    0.0000 S   0  0  0  0  0  0  0  0  0  0  0  0
    2.7395    6.6734    0.0000 O   0  0  0  0  0  0  0  0  0  0  0  0
    4.4095    5.7092    0.0000 O   0  0  0  0  0  0  0  0  0  0  0  0
    1.5000    5.1962    0.0000 C   0  0  0  0  0  0  0  0  0  0  0  0
    0.7500    3.8971    0.0000 C   0  0  0  0  0  0  0  0  0  0  0  0
   -0.7500    1.2990    0.0000 C   0  0  0  0  0  0  0  0  0  0  0  0
   -1.5000    0.0000    0.0000 C   0  0  0  0  0  0  0  0  0  0  0  0
   -0.7500   -1.2990    0.0000 C   0  0  0  0  0  0  0  0  0  0  0  0
   -1.5000   -2.5981    0.0000 C   0  0  0  0  0  0  0  0  0  0  0  0
   -3.0000   -2.5981    0.0000 O   0  0  0  0  0  0  0  0  0  0  0  0
   -0.7500   -3.8971    0.0000 C   0  0  0  0  0  0  0  0  0  0  0  0
    0.7500   -3.8971    0.0000 C   0  0  0  0  0  0  0  0  0  0  0  0
    1.2135   -5.3237    0.0000 N   0  0  0  0  0  0  0  0  0  0  0  0
    0.0000   -6.2054    0.0000 C   0  0  0  0  0  0  0  0  0  0  0  0
   -0.1568   -7.6972    0.0000 C   0  0  0  0  0  0  0  0  0  0  0  0
   -1.5271   -8.3073    0.0000 C   0  0  0  0  0  0  0  0  0  0  0  0
   -1.6839   -9.7990    0.0000 C   0  0  0  0  0  0  0  0  0  0  0  0
   -1.8407  -11.2908    0.0000 N   0  0  0  0  0  0  0  0  0  0  0  0
   -2.7406   -7.4256    0.0000 C   0  0  0  0  0  0  0  0  0  0  0  0
   -2.5838   -5.9338    0.0000 C   0  0  0  0  0  0  0  0  0  0  0  0
   -1.2135   -5.3237    0.0000 C   0  0  0  0  0  0  0  0  0  0  0  0
  1  2  1  0
  2  3  1  0
  2  4  1  0
  4  5  2  0
  5  6  1  0
  6  7  1  0
  7  8  1  0
  8  9  1  0
  9 10  1  0
 10 11  2  0
 10 12  2  0
 10 13  1  0
 13 14  1  0
  6 15  2  0
 15 16  1  0
 16 17  2  0
 17 18  1  0
 18 19  2  0
 18 20  1  0
 20 21  2  0
 21 22  1  0
 22 23  1  0
 23 24  2  0
 24 25  1  0
 25 26  1  0
 26 27  3  0
 25 28  2  0
 28 29  1  0
 29 30  2  0
 21  2  1  0
 30 23  1  0
 17  4  1  0
 30 20  1  0
 14  7  1  0
M  END
>  <Compound_ID>  (451) 
CHEMBL3982627

>  <Molecule Name>  (451) 
nan

>  <Molecular Weight>  (451) 
419.51

>  <AlogP>  (451) 
3.14

>  <Smiles>  (451) 
CC1(C)c2cc(N3CCS(=O)(=O)CC3)ccc2C(=O)c2c1[nH]c1cc(C#N)ccc21

>  <Standard Type>  (451) 
IC50

>  <Standard Relation>  (451) 
'='

>  <Standard Units>  (451) 
nM

>  <Standard Value>  (451) 
39.43

>  <Assay ChEMBL ID>  (451) 
CHEMBL3887074

>  <Assay Description>  (451) 
Inhibition Assay: ALK-inhibiting activity was measured by following an activity of inhibiting phosphorylation by biotinylated peptide (EGPWLEEEEEAYGWMDF). For the detection of phosphorylation of the biotinylated peptide, time-resolved fluorescence measurement was performed using an anti-phosphorylated tyrosine antibody labeled with europium cryptate and streptavidin conjugated to XL665, i.e., an allophycocyanin derivative.

>  <BAO Format ID>  (451) 
BAO_0000357

>  <BAO Label>  (451) 
single protein format

>  <Assay Organism>  (451) 
Homo sapiens

>  <Target ChEMBL ID>  (451) 
CHEMBL4247

>  <Target Name>  (451) 
ALK tyrosine kinase receptor

>  <Target Organism>  (451) 
Homo sapiens

>  <Target Type>  (451) 
SINGLE PROTEIN

>  <Document ChEMBL ID>  (451) 
CHEMBL3886150

>  <Source Description>  (451) 
BindingDB Database

>  <Document Journal>  (451) 
nan

>  <Document Year>  (451) 
2015.0

>  <Active>  (451) 
1.0

>  <bits>  (451) 
<rdkit.DataStructs.cDataStructs.ExplicitBitVect object at 0x000002422F233E60>

>  <Group>  (451) 
G2

$$$$

     RDKit          2D

 33 37  0  0  0  0  0  0  0  0999 V2000
    2.6491   -3.5623    0.0000 C   0  0  0  0  0  0  0  0  0  0  0  0
    1.5000   -2.5981    0.0000 C   0  0  0  0  0  0  0  0  0  0  0  0
    2.6491   -1.6339    0.0000 C   0  0  0  0  0  0  0  0  0  0  0  0
    0.7500   -1.2990    0.0000 C   0  0  0  0  0  0  0  0  0  0  0  0
    1.5000    0.0000    0.0000 C   0  0  0  0  0  0  0  0  0  0  0  0
    0.7500    1.2990    0.0000 C   0  0  0  0  0  0  0  0  0  0  0  0
    1.5000    2.5981    0.0000 C   0  0  0  0  0  0  0  0  0  0  0  0
    0.7500    3.8971    0.0000 O   0  0  0  0  0  0  0  0  0  0  0  0
    3.0000    2.5981    0.0000 N   0  0  0  0  0  0  0  0  0  0  0  0
    3.7500    1.2990    0.0000 C   0  0  0  0  0  0  0  0  0  0  0  0
    5.2500    1.2990    0.0000 C   0  0  0  0  0  0  0  0  0  0  0  0
    6.0000    2.5981    0.0000 N   0  0  0  0  0  0  0  0  0  0  0  0
    7.5000    2.5981    0.0000 C   0  0  0  0  0  0  0  0  0  0  0  0
    8.2500    1.2990    0.0000 C   0  0  0  0  0  0  0  0  0  0  0  0
    9.7500    1.2990    0.0000 O   0  0  0  0  0  0  0  0  0  0  0  0
    5.2500    3.8971    0.0000 C   0  0  0  0  0  0  0  0  0  0  0  0
    3.7500    3.8971    0.0000 C   0  0  0  0  0  0  0  0  0  0  0  0
   -0.7500    1.2990    0.0000 C   0  0  0  0  0  0  0  0  0  0  0  0
   -1.5000    0.0000    0.0000 C   0  0  0  0  0  0  0  0  0  0  0  0
   -0.7500   -1.2990    0.0000 C   0  0  0  0  0  0  0  0  0  0  0  0
   -1.5000   -2.5981    0.0000 C   0  0  0  0  0  0  0  0  0  0  0  0
   -3.0000   -2.5981    0.0000 O   0  0  0  0  0  0  0  0  0  0  0  0
   -0.7500   -3.8971    0.0000 C   0  0  0  0  0  0  0  0  0  0  0  0
    0.7500   -3.8971    0.0000 C   0  0  0  0  0  0  0  0  0  0  0  0
    1.2135   -5.3237    0.0000 N   0  0  0  0  0  0  0  0  0  0  0  0
    0.0000   -6.2054    0.0000 C   0  0  0  0  0  0  0  0  0  0  0  0
   -0.1568   -7.6972    0.0000 C   0  0  0  0  0  0  0  0  0  0  0  0
   -1.5271   -8.3073    0.0000 C   0  0  0  0  0  0  0  0  0  0  0  0
   -1.6839   -9.7990    0.0000 C   0  0  0  0  0  0  0  0  0  0  0  0
   -1.8407  -11.2908    0.0000 N   0  0  0  0  0  0  0  0  0  0  0  0
   -2.7406   -7.4256    0.0000 C   0  0  0  0  0  0  0  0  0  0  0  0
   -2.5838   -5.9338    0.0000 C   0  0  0  0  0  0  0  0  0  0  0  0
   -1.2135   -5.3237    0.0000 C   0  0  0  0  0  0  0  0  0  0  0  0
  1  2  1  0
  2  3  1  0
  2  4  1  0
  4  5  2  0
  5  6  1  0
  6  7  1  0
  7  8  2  0
  7  9  1  0
  9 10  1  0
 10 11  1  0
 11 12  1  0
 12 13  1  0
 13 14  1  0
 14 15  1  0
 12 16  1  0
 16 17  1  0
  6 18  2  0
 18 19  1  0
 19 20  2  0
 20 21  1  0
 21 22  2  0
 21 23  1  0
 23 24  2  0
 24 25  1  0
 25 26  1  0
 26 27  2  0
 27 28  1  0
 28 29  1  0
 29 30  3  0
 28 31  2  0
 31 32  1  0
 32 33  2  0
 24  2  1  0
 33 26  1  0
 20  4  1  0
 33 23  1  0
 17  9  1  0
M  END
>  <Compound_ID>  (452) 
CHEMBL3967160

>  <Molecule Name>  (452) 
nan

>  <Molecular Weight>  (452) 
442.52

>  <AlogP>  (452) 
2.66

>  <Smiles>  (452) 
CC1(C)c2cc(C(=O)N3CCN(CCO)CC3)ccc2C(=O)c2c1[nH]c1cc(C#N)ccc21

>  <Standard Type>  (452) 
IC50

>  <Standard Relation>  (452) 
'='

>  <Standard Units>  (452) 
nM

>  <Standard Value>  (452) 
42.38

>  <Assay ChEMBL ID>  (452) 
CHEMBL3887074

>  <Assay Description>  (452) 
Inhibition Assay: ALK-inhibiting activity was measured by following an activity of inhibiting phosphorylation by biotinylated peptide (EGPWLEEEEEAYGWMDF). For the detection of phosphorylation of the biotinylated peptide, time-resolved fluorescence measurement was performed using an anti-phosphorylated tyrosine antibody labeled with europium cryptate and streptavidin conjugated to XL665, i.e., an allophycocyanin derivative.

>  <BAO Format ID>  (452) 
BAO_0000357

>  <BAO Label>  (452) 
single protein format

>  <Assay Organism>  (452) 
Homo sapiens

>  <Target ChEMBL ID>  (452) 
CHEMBL4247

>  <Target Name>  (452) 
ALK tyrosine kinase receptor

>  <Target Organism>  (452) 
Homo sapiens

>  <Target Type>  (452) 
SINGLE PROTEIN

>  <Document ChEMBL ID>  (452) 
CHEMBL3886150

>  <Source Description>  (452) 
BindingDB Database

>  <Document Journal>  (452) 
nan

>  <Document Year>  (452) 
2015.0

>  <Active>  (452) 
1.0

>  <bits>  (452) 
<rdkit.DataStructs.cDataStructs.ExplicitBitVect object at 0x000002422F233A00>

>  <Group>  (452) 
G2

$$$$

     RDKit          2D

 32 36  0  0  0  0  0  0  0  0999 V2000
    2.6491   -3.5623    0.0000 C   0  0  0  0  0  0  0  0  0  0  0  0
    1.5000   -2.5981    0.0000 C   0  0  0  0  0  0  0  0  0  0  0  0
    2.6491   -1.6339    0.0000 C   0  0  0  0  0  0  0  0  0  0  0  0
    0.7500   -1.2990    0.0000 C   0  0  0  0  0  0  0  0  0  0  0  0
    1.5000    0.0000    0.0000 C   0  0  0  0  0  0  0  0  0  0  0  0
    0.7500    1.2990    0.0000 C   0  0  0  0  0  0  0  0  0  0  0  0
    1.5000    2.5981    0.0000 O   0  0  0  0  0  0  0  0  0  0  0  0
    3.0000    2.5981    0.0000 C   0  0  0  0  0  0  0  0  0  0  0  0
    3.7500    1.2990    0.0000 C   0  0  0  0  0  0  0  0  0  0  0  0
    5.2500    1.2990    0.0000 C   0  0  0  0  0  0  0  0  0  0  0  0
    6.0000    2.5981    0.0000 N   0  0  0  0  0  0  0  0  0  0  0  0
    7.5000    2.5981    0.0000 C   0  0  0  0  0  0  0  0  0  0  0  0
    8.2500    1.2990    0.0000 C   0  0  0  0  0  0  0  0  0  0  0  0
    9.7500    1.2990    0.0000 O   0  0  0  0  0  0  0  0  0  0  0  0
    5.2500    3.8971    0.0000 C   0  0  0  0  0  0  0  0  0  0  0  0
    3.7500    3.8971    0.0000 C   0  0  0  0  0  0  0  0  0  0  0  0
   -0.7500    1.2990    0.0000 C   0  0  0  0  0  0  0  0  0  0  0  0
   -1.5000    0.0000    0.0000 C   0  0  0  0  0  0  0  0  0  0  0  0
   -0.7500   -1.2990    0.0000 C   0  0  0  0  0  0  0  0  0  0  0  0
   -1.5000   -2.5981    0.0000 C   0  0  0  0  0  0  0  0  0  0  0  0
   -3.0000   -2.5981    0.0000 O   0  0  0  0  0  0  0  0  0  0  0  0
   -0.7500   -3.8971    0.0000 C   0  0  0  0  0  0  0  0  0  0  0  0
    0.7500   -3.8971    0.0000 C   0  0  0  0  0  0  0  0  0  0  0  0
    1.2135   -5.3237    0.0000 N   0  0  0  0  0  0  0  0  0  0  0  0
    0.0000   -6.2054    0.0000 C   0  0  0  0  0  0  0  0  0  0  0  0
   -0.1568   -7.6972    0.0000 C   0  0  0  0  0  0  0  0  0  0  0  0
   -1.5271   -8.3073    0.0000 C   0  0  0  0  0  0  0  0  0  0  0  0
   -1.6839   -9.7990    0.0000 C   0  0  0  0  0  0  0  0  0  0  0  0
   -1.8407  -11.2908    0.0000 N   0  0  0  0  0  0  0  0  0  0  0  0
   -2.7406   -7.4256    0.0000 C   0  0  0  0  0  0  0  0  0  0  0  0
   -2.5838   -5.9338    0.0000 C   0  0  0  0  0  0  0  0  0  0  0  0
   -1.2135   -5.3237    0.0000 C   0  0  0  0  0  0  0  0  0  0  0  0
  1  2  1  0
  2  3  1  0
  2  4  1  0
  4  5  2  0
  5  6  1  0
  6  7  1  0
  7  8  1  0
  8  9  1  0
  9 10  1  0
 10 11  1  0
 11 12  1  0
 12 13  1  0
 13 14  1  0
 11 15  1  0
 15 16  1  0
  6 17  2  0
 17 18  1  0
 18 19  2  0
 19 20  1  0
 20 21  2  0
 20 22  1  0
 22 23  2  0
 23 24  1  0
 24 25  1  0
 25 26  2  0
 26 27  1  0
 27 28  1  0
 28 29  3  0
 27 30  2  0
 30 31  1  0
 31 32  2  0
 23  2  1  0
 32 25  1  0
 19  4  1  0
 32 22  1  0
 16  8  1  0
M  END
>  <Compound_ID>  (453) 
CHEMBL3963068

>  <Molecule Name>  (453) 
nan

>  <Molecular Weight>  (453) 
429.52

>  <AlogP>  (453) 
3.75

>  <Smiles>  (453) 
CC1(C)c2cc(OC3CCN(CCO)CC3)ccc2C(=O)c2c1[nH]c1cc(C#N)ccc21

>  <Standard Type>  (453) 
IC50

>  <Standard Relation>  (453) 
'='

>  <Standard Units>  (453) 
nM

>  <Standard Value>  (453) 
1.398

>  <Assay ChEMBL ID>  (453) 
CHEMBL3887074

>  <Assay Description>  (453) 
Inhibition Assay: ALK-inhibiting activity was measured by following an activity of inhibiting phosphorylation by biotinylated peptide (EGPWLEEEEEAYGWMDF). For the detection of phosphorylation of the biotinylated peptide, time-resolved fluorescence measurement was performed using an anti-phosphorylated tyrosine antibody labeled with europium cryptate and streptavidin conjugated to XL665, i.e., an allophycocyanin derivative.

>  <BAO Format ID>  (453) 
BAO_0000357

>  <BAO Label>  (453) 
single protein format

>  <Assay Organism>  (453) 
Homo sapiens

>  <Target ChEMBL ID>  (453) 
CHEMBL4247

>  <Target Name>  (453) 
ALK tyrosine kinase receptor

>  <Target Organism>  (453) 
Homo sapiens

>  <Target Type>  (453) 
SINGLE PROTEIN

>  <Document ChEMBL ID>  (453) 
CHEMBL3886150

>  <Source Description>  (453) 
BindingDB Database

>  <Document Journal>  (453) 
nan

>  <Document Year>  (453) 
2015.0

>  <Active>  (453) 
1.0

>  <bits>  (453) 
<rdkit.DataStructs.cDataStructs.ExplicitBitVect object at 0x000002422F233F40>

>  <Group>  (453) 
G2

$$$$

     RDKit          2D

 35 39  0  0  0  0  0  0  0  0999 V2000
   -1.6638  -12.0876    0.0000 C   0  0  0  0  0  0  0  0  0  0  0  0
   -1.0537  -10.7173    0.0000 C   0  0  0  0  0  0  0  0  0  0  0  0
   -2.4802  -10.2538    0.0000 C   0  0  0  0  0  0  0  0  0  0  0  0
    0.2454  -11.4673    0.0000 O   0  0  0  0  0  0  0  0  0  0  0  0
    1.3601  -10.4636    0.0000 C   0  0  0  0  0  0  0  0  0  0  0  0
    0.7500   -9.0933    0.0000 C   0  0  0  0  0  0  0  0  0  0  0  0
    1.5000   -7.7942    0.0000 C   0  0  0  0  0  0  0  0  0  0  0  0
    0.7500   -6.4952    0.0000 N   0  0  0  0  0  0  0  0  0  0  0  0
    1.5000   -5.1962    0.0000 C   0  0  0  0  0  0  0  0  0  0  0  0
    3.0000   -5.1962    0.0000 O   0  0  0  0  0  0  0  0  0  0  0  0
    0.7500   -3.8971    0.0000 C   0  0  0  0  0  0  0  0  0  0  0  0
    1.5000   -2.5981    0.0000 O   0  0  0  0  0  0  0  0  0  0  0  0
    0.7500   -1.2990    0.0000 C   0  0  0  0  0  0  0  0  0  0  0  0
    1.5000    0.0000    0.0000 C   0  0  0  0  0  0  0  0  0  0  0  0
    0.7500    1.2990    0.0000 C   0  0  0  0  0  0  0  0  0  0  0  0
   -0.7500    1.2990    0.0000 C   0  0  0  0  0  0  0  0  0  0  0  0
   -1.5000    0.0000    0.0000 C   0  0  0  0  0  0  0  0  0  0  0  0
   -0.7500   -1.2990    0.0000 C   0  0  0  0  0  0  0  0  0  0  0  0
   -3.0000    0.0000    0.0000 C   0  0  0  0  0  0  0  0  0  0  0  0
   -4.4095   -0.5130    0.0000 C   0  0  0  0  0  0  0  0  0  0  0  0
   -2.7395   -1.4772    0.0000 C   0  0  0  0  0  0  0  0  0  0  0  0
   -3.7500    1.2990    0.0000 C   0  0  0  0  0  0  0  0  0  0  0  0
   -5.2172    1.6109    0.0000 N   0  0  0  0  0  0  0  0  0  0  0  0
   -5.3740    3.1027    0.0000 C   0  0  0  0  0  0  0  0  0  0  0  0
   -6.5875    3.9844    0.0000 C   0  0  0  0  0  0  0  0  0  0  0  0
   -6.4307    5.4761    0.0000 C   0  0  0  0  0  0  0  0  0  0  0  0
   -7.6443    6.3578    0.0000 C   0  0  0  0  0  0  0  0  0  0  0  0
   -8.8578    7.2395    0.0000 N   0  0  0  0  0  0  0  0  0  0  0  0
   -5.0604    6.0863    0.0000 C   0  0  0  0  0  0  0  0  0  0  0  0
   -3.8469    5.2046    0.0000 C   0  0  0  0  0  0  0  0  0  0  0  0
   -4.0037    3.7128    0.0000 C   0  0  0  0  0  0  0  0  0  0  0  0
   -3.0000    2.5981    0.0000 C   0  0  0  0  0  0  0  0  0  0  0  0
   -1.5000    2.5981    0.0000 C   0  0  0  0  0  0  0  0  0  0  0  0
   -0.7500    3.8971    0.0000 O   0  0  0  0  0  0  0  0  0  0  0  0
   -0.7418   -9.2501    0.0000 O   0  0  0  0  0  0  0  0  0  0  0  0
  1  2  1  0
  2  3  1  0
  2  4  1  0
  4  5  1  0
  5  6  1  0
  6  7  1  0
  7  8  1  0
  8  9  1  0
  9 10  2  0
  9 11  1  0
 11 12  1  0
 12 13  1  0
 13 14  2  0
 14 15  1  0
 15 16  2  0
 16 17  1  0
 17 18  2  0
 17 19  1  0
 19 20  1  0
 19 21  1  0
 19 22  1  0
 22 23  1  0
 23 24  1  0
 24 25  2  0
 25 26  1  0
 26 27  1  0
 27 28  3  0
 26 29  2  0
 29 30  1  0
 30 31  2  0
 31 32  1  0
 32 33  1  0
 33 34  2  0
  6 35  1  0
 35  2  1  0
 18 13  1  0
 32 22  2  0
 33 16  1  0
 31 24  1  0
M  END
>  <Compound_ID>  (454) 
CHEMBL3931796

>  <Molecule Name>  (454) 
nan

>  <Molecular Weight>  (454) 
473.53

>  <AlogP>  (454) 
3.56

>  <Smiles>  (454) 
CC1(C)OCC(CNC(=O)COc2ccc3c(c2)C(C)(C)c2[nH]c4cc(C#N)ccc4c2C3=O)O1

>  <Standard Type>  (454) 
IC50

>  <Standard Relation>  (454) 
'='

>  <Standard Units>  (454) 
nM

>  <Standard Value>  (454) 
51.12

>  <Assay ChEMBL ID>  (454) 
CHEMBL3887074

>  <Assay Description>  (454) 
Inhibition Assay: ALK-inhibiting activity was measured by following an activity of inhibiting phosphorylation by biotinylated peptide (EGPWLEEEEEAYGWMDF). For the detection of phosphorylation of the biotinylated peptide, time-resolved fluorescence measurement was performed using an anti-phosphorylated tyrosine antibody labeled with europium cryptate and streptavidin conjugated to XL665, i.e., an allophycocyanin derivative.

>  <BAO Format ID>  (454) 
BAO_0000357

>  <BAO Label>  (454) 
single protein format

>  <Assay Organism>  (454) 
Homo sapiens

>  <Target ChEMBL ID>  (454) 
CHEMBL4247

>  <Target Name>  (454) 
ALK tyrosine kinase receptor

>  <Target Organism>  (454) 
Homo sapiens

>  <Target Type>  (454) 
SINGLE PROTEIN

>  <Document ChEMBL ID>  (454) 
CHEMBL3886150

>  <Source Description>  (454) 
BindingDB Database

>  <Document Journal>  (454) 
nan

>  <Document Year>  (454) 
2015.0

>  <Active>  (454) 
1.0

>  <bits>  (454) 
<rdkit.DataStructs.cDataStructs.ExplicitBitVect object at 0x000002422F232110>

>  <Group>  (454) 
G2

$$$$

     RDKit          2D

 30 33  0  0  0  0  0  0  0  0999 V2000
    7.5000   -4.0981    0.0000 C   0  0  0  0  0  0  0  0  0  0  0  0
    7.5000   -2.5981    0.0000 C   0  0  0  0  0  0  0  0  0  0  0  0
    7.5000   -1.0981    0.0000 C   0  0  0  0  0  0  0  0  0  0  0  0
    9.0000   -2.5981    0.0000 C   0  0  0  0  0  0  0  0  0  0  0  0
    6.0000   -2.5981    0.0000 N   0  0  0  0  0  0  0  0  0  0  0  0
    5.2500   -1.2990    0.0000 C   0  0  0  0  0  0  0  0  0  0  0  0
    3.7500   -1.2990    0.0000 C   0  0  0  0  0  0  0  0  0  0  0  0
    3.0000    0.0000    0.0000 O   0  0  0  0  0  0  0  0  0  0  0  0
    1.5000    0.0000    0.0000 C   0  0  0  0  0  0  0  0  0  0  0  0
    0.7500   -1.2990    0.0000 C   0  0  0  0  0  0  0  0  0  0  0  0
   -0.7500   -1.2990    0.0000 C   0  0  0  0  0  0  0  0  0  0  0  0
   -1.5000    0.0000    0.0000 C   0  0  0  0  0  0  0  0  0  0  0  0
   -0.7500    1.2990    0.0000 C   0  0  0  0  0  0  0  0  0  0  0  0
    0.7500    1.2990    0.0000 C   0  0  0  0  0  0  0  0  0  0  0  0
   -1.5000    2.5981    0.0000 C   0  0  0  0  0  0  0  0  0  0  0  0
   -1.7605    4.0753    0.0000 C   0  0  0  0  0  0  0  0  0  0  0  0
   -0.0905    3.1111    0.0000 C   0  0  0  0  0  0  0  0  0  0  0  0
   -3.0000    2.5981    0.0000 C   0  0  0  0  0  0  0  0  0  0  0  0
   -4.0037    3.7128    0.0000 N   0  0  0  0  0  0  0  0  0  0  0  0
   -5.3740    3.1027    0.0000 C   0  0  0  0  0  0  0  0  0  0  0  0
   -6.7443    3.7128    0.0000 C   0  0  0  0  0  0  0  0  0  0  0  0
   -7.9579    2.8311    0.0000 C   0  0  0  0  0  0  0  0  0  0  0  0
   -9.3282    3.4412    0.0000 C   0  0  0  0  0  0  0  0  0  0  0  0
  -10.6985    4.0513    0.0000 N   0  0  0  0  0  0  0  0  0  0  0  0
   -7.8011    1.3393    0.0000 C   0  0  0  0  0  0  0  0  0  0  0  0
   -6.4307    0.7292    0.0000 C   0  0  0  0  0  0  0  0  0  0  0  0
   -5.2172    1.6109    0.0000 C   0  0  0  0  0  0  0  0  0  0  0  0
   -3.7500    1.2990    0.0000 C   0  0  0  0  0  0  0  0  0  0  0  0
   -3.0000    0.0000    0.0000 C   0  0  0  0  0  0  0  0  0  0  0  0
   -3.7500   -1.2990    0.0000 O   0  0  0  0  0  0  0  0  0  0  0  0
  1  2  1  0
  2  3  1  0
  2  4  1  0
  2  5  1  0
  5  6  1  0
  6  7  1  0
  7  8  1  0
  8  9  1  0
  9 10  2  0
 10 11  1  0
 11 12  2  0
 12 13  1  0
 13 14  2  0
 13 15  1  0
 15 16  1  0
 15 17  1  0
 15 18  1  0
 18 19  1  0
 19 20  1  0
 20 21  2  0
 21 22  1  0
 22 23  1  0
 23 24  3  0
 22 25  2  0
 25 26  1  0
 26 27  2  0
 27 28  1  0
 28 29  1  0
 29 30  2  0
 14  9  1  0
 28 18  2  0
 29 12  1  0
 27 20  1  0
M  END
>  <Compound_ID>  (455) 
CHEMBL3892306

>  <Molecule Name>  (455) 
nan

>  <Molecular Weight>  (455) 
401.51

>  <AlogP>  (455) 
4.68

>  <Smiles>  (455) 
CC(C)(C)NCCOc1ccc2c(c1)C(C)(C)c1[nH]c3cc(C#N)ccc3c1C2=O

>  <Standard Type>  (455) 
IC50

>  <Standard Relation>  (455) 
'='

>  <Standard Units>  (455) 
nM

>  <Standard Value>  (455) 
6.73

>  <Assay ChEMBL ID>  (455) 
CHEMBL3887074

>  <Assay Description>  (455) 
Inhibition Assay: ALK-inhibiting activity was measured by following an activity of inhibiting phosphorylation by biotinylated peptide (EGPWLEEEEEAYGWMDF). For the detection of phosphorylation of the biotinylated peptide, time-resolved fluorescence measurement was performed using an anti-phosphorylated tyrosine antibody labeled with europium cryptate and streptavidin conjugated to XL665, i.e., an allophycocyanin derivative.

>  <BAO Format ID>  (455) 
BAO_0000357

>  <BAO Label>  (455) 
single protein format

>  <Assay Organism>  (455) 
Homo sapiens

>  <Target ChEMBL ID>  (455) 
CHEMBL4247

>  <Target Name>  (455) 
ALK tyrosine kinase receptor

>  <Target Organism>  (455) 
Homo sapiens

>  <Target Type>  (455) 
SINGLE PROTEIN

>  <Document ChEMBL ID>  (455) 
CHEMBL3886150

>  <Source Description>  (455) 
BindingDB Database

>  <Document Journal>  (455) 
nan

>  <Document Year>  (455) 
2015.0

>  <Active>  (455) 
1.0

>  <bits>  (455) 
<rdkit.DataStructs.cDataStructs.ExplicitBitVect object at 0x000002422F2334C0>

>  <Group>  (455) 
G2

$$$$

     RDKit          2D

 41 45  0  0  0  0  0  0  0  0999 V2000
    0.5271    8.0861    0.0000 C   0  0  0  0  0  0  0  0  0  0  0  0
   -0.8995    7.6226    0.0000 C   0  0  0  0  0  0  0  0  0  0  0  0
   -1.2114    6.1554    0.0000 C   0  0  0  0  0  0  0  0  0  0  0  0
   -2.6380    5.6918    0.0000 C   0  0  0  0  0  0  0  0  0  0  0  0
   -2.9499    4.2246    0.0000 N   0  0  0  0  0  0  0  0  0  0  0  0
   -1.8351    3.2209    0.0000 C   0  0  0  0  0  0  0  0  0  0  0  0
   -0.4086    3.6844    0.0000 N   0  0  0  0  0  0  0  0  0  0  0  0
    0.7062    2.6807    0.0000 C   0  0  0  0  0  0  0  0  0  0  0  0
    2.1328    3.1443    0.0000 N   0  0  0  0  0  0  0  0  0  0  0  0
    2.4446    4.6115    0.0000 C   0  0  0  0  0  0  0  0  0  0  0  0
    1.3299    5.6152    0.0000 C   0  0  0  0  0  0  0  0  0  0  0  0
    1.6418    7.0824    0.0000 C   0  0  0  0  0  0  0  0  0  0  0  0
    3.0684    7.5459    0.0000 C   0  0  0  0  0  0  0  0  0  0  0  0
    4.1831    6.5422    0.0000 C   0  0  0  0  0  0  0  0  0  0  0  0
    3.8712    5.0750    0.0000 C   0  0  0  0  0  0  0  0  0  0  0  0
    4.9859    4.0713    0.0000 S   0  0  0  0  0  0  0  0  0  0  0  0
    3.9822    2.9566    0.0000 O   0  0  0  0  0  0  0  0  0  0  0  0
    5.9896    5.1860    0.0000 O   0  0  0  0  0  0  0  0  0  0  0  0
    6.1006    3.0676    0.0000 C   0  0  0  0  0  0  0  0  0  0  0  0
    5.7888    1.6004    0.0000 C   0  0  0  0  0  0  0  0  0  0  0  0
    7.5272    3.5312    0.0000 C   0  0  0  0  0  0  0  0  0  0  0  0
    0.3943    1.2135    0.0000 C   0  0  0  0  0  0  0  0  0  0  0  0
    1.2760    0.0000    0.0000 C   0  0  0  0  0  0  0  0  0  0  0  0
    0.3943   -1.2135    0.0000 C   0  0  0  0  0  0  0  0  0  0  0  0
   -1.0323   -0.7500    0.0000 N   0  0  0  0  0  0  0  0  0  0  0  0
   -1.0323    0.7500    0.0000 C   0  0  0  0  0  0  0  0  0  0  0  0
   -2.1470    1.7537    0.0000 N   0  0  0  0  0  0  0  0  0  0  0  0
   -3.7527    6.6955    0.0000 C   0  0  0  0  0  0  0  0  0  0  0  0
   -5.1793    6.2320    0.0000 O   0  0  0  0  0  0  0  0  0  0  0  0
   -6.2940    7.2357    0.0000 C   0  0  0  0  0  0  0  0  0  0  0  0
   -7.7206    6.7722    0.0000 C   0  0  0  0  0  0  0  0  0  0  0  0
   -5.9821    8.7029    0.0000 C   0  0  0  0  0  0  0  0  0  0  0  0
   -3.4408    8.1628    0.0000 C   0  0  0  0  0  0  0  0  0  0  0  0
   -2.0143    8.6263    0.0000 C   0  0  0  0  0  0  0  0  0  0  0  0
   -1.7024   10.0935    0.0000 C   0  0  0  0  0  0  0  0  0  0  0  0
   -0.2758   10.5570    0.0000 C   0  0  0  0  0  0  0  0  0  0  0  0
    0.0361   12.0242    0.0000 C   0  0  0  0  0  0  0  0  0  0  0  0
   -1.0786   13.0279    0.0000 N   0  0  0  0  0  0  0  0  0  0  0  0
   -0.7668   14.4952    0.0000 C   0  0  0  0  0  0  0  0  0  0  0  0
   -2.5052   12.5644    0.0000 C   0  0  0  0  0  0  0  0  0  0  0  0
   -2.8171   11.0972    0.0000 C   0  0  0  0  0  0  0  0  0  0  0  0
  1  2  1  0
  2  3  2  0
  3  4  1  0
  4  5  1  0
  5  6  1  0
  6  7  2  0
  7  8  1  0
  8  9  1  0
  9 10  1  0
 10 11  2  0
 11 12  1  0
 12 13  2  0
 13 14  1  0
 14 15  2  0
 15 16  1  0
 16 17  2  0
 16 18  2  0
 16 19  1  0
 19 20  1  0
 19 21  1  0
  8 22  2  0
 22 23  1  0
 23 24  2  0
 24 25  1  0
 25 26  1  0
 26 27  2  0
  4 28  2  0
 28 29  1  0
 29 30  1  0
 30 31  1  0
 30 32  1  0
 28 33  1  0
 33 34  2  0
 34 35  1  0
 35 36  1  0
 36 37  1  0
 37 38  1  0
 38 39  1  0
 38 40  1  0
 40 41  1  0
 34  2  1  0
 41 35  1  0
 27  6  1  0
 15 10  1  0
 26 22  1  0
M  END
>  <Compound_ID>  (456) 
CHEMBL4762256

>  <Molecule Name>  (456) 
nan

>  <Molecular Weight>  (456) 
576.77

>  <AlogP>  (456) 
6.53

>  <Smiles>  (456) 
Cc1cc(Nc2nc(Nc3ccccc3S(=O)(=O)C(C)C)c3cc[nH]c3n2)c(OC(C)C)cc1C1CCN(C)CC1

>  <Standard Type>  (456) 
IC50

>  <Standard Relation>  (456) 
'='

>  <Standard Units>  (456) 
nM

>  <Standard Value>  (456) 
8.0

>  <Assay ChEMBL ID>  (456) 
CHEMBL4716834

>  <Assay Description>  (456) 
Inhibition of ALK (unknown origin)

>  <BAO Format ID>  (456) 
BAO_0000357

>  <BAO Label>  (456) 
single protein format

>  <Assay Organism>  (456) 
Homo sapiens

>  <Target ChEMBL ID>  (456) 
CHEMBL4247

>  <Target Name>  (456) 
ALK tyrosine kinase receptor

>  <Target Organism>  (456) 
Homo sapiens

>  <Target Type>  (456) 
SINGLE PROTEIN

>  <Document ChEMBL ID>  (456) 
CHEMBL4715698

>  <Source Description>  (456) 
Scientific Literature

>  <Document Journal>  (456) 
Bioorg Med Chem Lett

>  <Document Year>  (456) 
2016.0

>  <Active>  (456) 
1.0

>  <bits>  (456) 
<rdkit.DataStructs.cDataStructs.ExplicitBitVect object at 0x000002422F2336F0>

>  <Group>  (456) 
G2

$$$$

     RDKit          2D

 34 37  0  0  0  0  0  0  0  0999 V2000
  -12.1761   -7.6065    0.0000 C   0  0  0  0  0  0  0  0  0  0  0  0
  -10.8058   -6.9964    0.0000 C   0  0  0  0  0  0  0  0  0  0  0  0
   -9.5922   -7.8780    0.0000 N   0  0  0  0  0  0  0  0  0  0  0  0
   -9.7490   -9.3698    0.0000 C   0  0  0  0  0  0  0  0  0  0  0  0
  -11.1193   -9.9799    0.0000 C   0  0  0  0  0  0  0  0  0  0  0  0
   -8.2219   -7.2679    0.0000 C   0  0  0  0  0  0  0  0  0  0  0  0
   -7.0084   -8.1496    0.0000 C   0  0  0  0  0  0  0  0  0  0  0  0
   -5.6381   -7.5395    0.0000 S   0  0  0  0  0  0  0  0  0  0  0  0
   -5.0280   -8.9098    0.0000 O   0  0  0  0  0  0  0  0  0  0  0  0
   -6.2482   -6.1692    0.0000 O   0  0  0  0  0  0  0  0  0  0  0  0
   -4.2677   -6.9294    0.0000 C   0  0  0  0  0  0  0  0  0  0  0  0
   -4.1110   -5.4376    0.0000 C   0  0  0  0  0  0  0  0  0  0  0  0
   -2.7406   -4.8275    0.0000 C   0  0  0  0  0  0  0  0  0  0  0  0
   -1.5271   -5.7092    0.0000 C   0  0  0  0  0  0  0  0  0  0  0  0
   -1.6839   -7.2010    0.0000 C   0  0  0  0  0  0  0  0  0  0  0  0
   -3.0542   -7.8111    0.0000 C   0  0  0  0  0  0  0  0  0  0  0  0
   -3.2110   -9.3029    0.0000 O   0  0  0  0  0  0  0  0  0  0  0  0
   -4.5813   -9.9130    0.0000 C   0  0  0  0  0  0  0  0  0  0  0  0
   -0.1568   -5.0991    0.0000 C   0  0  0  0  0  0  0  0  0  0  0  0
    1.3396   -4.9944    0.0000 C   0  0  0  0  0  0  0  0  0  0  0  0
    0.2061   -6.5545    0.0000 C   0  0  0  0  0  0  0  0  0  0  0  0
   -0.0000   -3.6073    0.0000 C   0  0  0  0  0  0  0  0  0  0  0  0
    1.2135   -2.7256    0.0000 N   0  0  0  0  0  0  0  0  0  0  0  0
    0.7500   -1.2990    0.0000 C   0  0  0  0  0  0  0  0  0  0  0  0
    1.5000    0.0000    0.0000 C   0  0  0  0  0  0  0  0  0  0  0  0
    0.7500    1.2990    0.0000 C   0  0  0  0  0  0  0  0  0  0  0  0
    1.5000    2.5981    0.0000 C   0  0  0  0  0  0  0  0  0  0  0  0
    2.2500    3.8971    0.0000 N   0  0  0  0  0  0  0  0  0  0  0  0
   -0.7500    1.2990    0.0000 C   0  0  0  0  0  0  0  0  0  0  0  0
   -1.5000    0.0000    0.0000 C   0  0  0  0  0  0  0  0  0  0  0  0
   -0.7500   -1.2990    0.0000 C   0  0  0  0  0  0  0  0  0  0  0  0
   -1.2135   -2.7256    0.0000 C   0  0  0  0  0  0  0  0  0  0  0  0
   -2.5838   -3.3357    0.0000 C   0  0  0  0  0  0  0  0  0  0  0  0
   -3.7974   -2.4540    0.0000 O   0  0  0  0  0  0  0  0  0  0  0  0
  1  2  1  0
  2  3  1  0
  3  4  1  0
  4  5  1  0
  3  6  1  0
  6  7  1  0
  7  8  1  0
  8  9  2  0
  8 10  2  0
  8 11  1  0
 11 12  2  0
 12 13  1  0
 13 14  2  0
 14 15  1  0
 15 16  2  0
 16 17  1  0
 17 18  1  0
 14 19  1  0
 19 20  1  0
 19 21  1  0
 19 22  1  0
 22 23  1  0
 23 24  1  0
 24 25  2  0
 25 26  1  0
 26 27  1  0
 27 28  3  0
 26 29  2  0
 29 30  1  0
 30 31  2  0
 31 32  1  0
 32 33  1  0
 33 34  2  0
 16 11  1  0
 32 22  2  0
 33 13  1  0
 31 24  1  0
M  END
>  <Compound_ID>  (457) 
CHEMBL3897705

>  <Molecule Name>  (457) 
nan

>  <Molecular Weight>  (457) 
479.6

>  <AlogP>  (457) 
4.03

>  <Smiles>  (457) 
CCN(CC)CCS(=O)(=O)c1cc2c(cc1OC)C(C)(C)c1[nH]c3cc(C#N)ccc3c1C2=O

>  <Standard Type>  (457) 
IC50

>  <Standard Relation>  (457) 
'='

>  <Standard Units>  (457) 
nM

>  <Standard Value>  (457) 
1.338

>  <Assay ChEMBL ID>  (457) 
CHEMBL3887074

>  <Assay Description>  (457) 
Inhibition Assay: ALK-inhibiting activity was measured by following an activity of inhibiting phosphorylation by biotinylated peptide (EGPWLEEEEEAYGWMDF). For the detection of phosphorylation of the biotinylated peptide, time-resolved fluorescence measurement was performed using an anti-phosphorylated tyrosine antibody labeled with europium cryptate and streptavidin conjugated to XL665, i.e., an allophycocyanin derivative.

>  <BAO Format ID>  (457) 
BAO_0000357

>  <BAO Label>  (457) 
single protein format

>  <Assay Organism>  (457) 
Homo sapiens

>  <Target ChEMBL ID>  (457) 
CHEMBL4247

>  <Target Name>  (457) 
ALK tyrosine kinase receptor

>  <Target Organism>  (457) 
Homo sapiens

>  <Target Type>  (457) 
SINGLE PROTEIN

>  <Document ChEMBL ID>  (457) 
CHEMBL3886150

>  <Source Description>  (457) 
BindingDB Database

>  <Document Journal>  (457) 
nan

>  <Document Year>  (457) 
2015.0

>  <Active>  (457) 
1.0

>  <bits>  (457) 
<rdkit.DataStructs.cDataStructs.ExplicitBitVect object at 0x000002422F230B30>

>  <Group>  (457) 
G2

$$$$

     RDKit          2D

 34 39  0  0  0  0  0  0  0  0999 V2000
    9.9485    0.1542    0.0000 N   0  0  0  0  0  0  0  0  0  0  0  0
    8.5782   -0.4559    0.0000 C   0  0  0  0  0  0  0  0  0  0  0  0
    7.2079   -1.0660    0.0000 C   0  0  0  0  0  0  0  0  0  0  0  0
    7.0511   -2.5578    0.0000 C   0  0  0  0  0  0  0  0  0  0  0  0
    5.6807   -3.1679    0.0000 C   0  0  0  0  0  0  0  0  0  0  0  0
    4.4672   -2.2862    0.0000 C   0  0  0  0  0  0  0  0  0  0  0  0
    3.0000   -2.5981    0.0000 C   0  0  0  0  0  0  0  0  0  0  0  0
    2.2500   -1.2990    0.0000 C   0  0  0  0  0  0  0  0  0  0  0  0
    3.2537   -0.1843    0.0000 N   0  0  0  0  0  0  0  0  0  0  0  0
    4.6240   -0.7944    0.0000 C   0  0  0  0  0  0  0  0  0  0  0  0
    5.9943   -0.1843    0.0000 C   0  0  0  0  0  0  0  0  0  0  0  0
    0.7500   -1.2990    0.0000 C   0  0  0  0  0  0  0  0  0  0  0  0
    1.5000    0.0000    0.0000 C   0  0  0  0  0  0  0  0  0  0  0  0
    0.7500    1.2990    0.0000 C   0  0  0  0  0  0  0  0  0  0  0  0
   -0.7500    1.2990    0.0000 O   0  0  0  0  0  0  0  0  0  0  0  0
   -1.5000    0.0000    0.0000 C   0  0  0  0  0  0  0  0  0  0  0  0
   -0.7500   -1.2990    0.0000 C   0  0  0  0  0  0  0  0  0  0  0  0
   -0.0000   -2.5981    0.0000 C   0  0  0  0  0  0  0  0  0  0  0  0
   -1.5000   -2.5981    0.0000 C   0  0  0  0  0  0  0  0  0  0  0  0
   -2.2500   -3.8971    0.0000 C   0  0  0  0  0  0  0  0  0  0  0  0
   -3.7500   -3.8971    0.0000 O   0  0  0  0  0  0  0  0  0  0  0  0
   -4.5000   -2.5981    0.0000 C   0  0  0  0  0  0  0  0  0  0  0  0
   -6.0000   -2.5981    0.0000 C   0  0  0  0  0  0  0  0  0  0  0  0
   -6.7500   -1.2990    0.0000 N   0  0  0  0  0  0  0  0  0  0  0  0
   -6.0000    0.0000    0.0000 C   0  0  0  0  0  0  0  0  0  0  0  0
   -6.7500    1.2990    0.0000 C   0  0  0  0  0  0  0  0  0  0  0  0
   -8.2500    1.2990    0.0000 O   0  0  0  0  0  0  0  0  0  0  0  0
   -9.0000    0.0000    0.0000 C   0  0  0  0  0  0  0  0  0  0  0  0
   -8.2500   -1.2990    0.0000 C   0  0  0  0  0  0  0  0  0  0  0  0
   -1.5000   -5.1962    0.0000 C   0  0  0  0  0  0  0  0  0  0  0  0
   -0.0000   -5.1962    0.0000 C   0  0  0  0  0  0  0  0  0  0  0  0
    0.7500   -3.8971    0.0000 C   0  0  0  0  0  0  0  0  0  0  0  0
    2.2500   -3.8971    0.0000 C   0  0  0  0  0  0  0  0  0  0  0  0
    3.0000   -5.1962    0.0000 O   0  0  0  0  0  0  0  0  0  0  0  0
  1  2  3  0
  2  3  1  0
  3  4  2  0
  4  5  1  0
  5  6  2  0
  6  7  1  0
  7  8  2  0
  8  9  1  0
  9 10  1  0
 10 11  2  0
  8 12  1  0
 12 13  1  0
 13 14  1  0
 14 15  1  0
 15 16  1  0
 16 17  1  0
 12 18  1  0
 18 19  2  0
 19 20  1  0
 20 21  1  0
 21 22  1  0
 22 23  1  0
 23 24  1  0
 24 25  1  0
 25 26  1  0
 26 27  1  0
 27 28  1  0
 28 29  1  0
 20 30  2  0
 30 31  1  0
 31 32  2  0
 32 33  1  0
 33 34  2  0
 11  3  1  0
 17 12  1  0
 32 18  1  0
 10  6  1  0
 29 24  1  0
 33  7  1  0
M  END
>  <Compound_ID>  (458) 
CHEMBL3929113

>  <Molecule Name>  (458) 
nan

>  <Molecular Weight>  (458) 
457.53

>  <AlogP>  (458) 
3.39

>  <Smiles>  (458) 
N#Cc1ccc2c3c([nH]c2c1)C1(CCOCC1)c1cc(OCCN2CCOCC2)ccc1C3=O

>  <Standard Type>  (458) 
IC50

>  <Standard Relation>  (458) 
'='

>  <Standard Units>  (458) 
nM

>  <Standard Value>  (458) 
32.73

>  <Assay ChEMBL ID>  (458) 
CHEMBL3887074

>  <Assay Description>  (458) 
Inhibition Assay: ALK-inhibiting activity was measured by following an activity of inhibiting phosphorylation by biotinylated peptide (EGPWLEEEEEAYGWMDF). For the detection of phosphorylation of the biotinylated peptide, time-resolved fluorescence measurement was performed using an anti-phosphorylated tyrosine antibody labeled with europium cryptate and streptavidin conjugated to XL665, i.e., an allophycocyanin derivative.

>  <BAO Format ID>  (458) 
BAO_0000357

>  <BAO Label>  (458) 
single protein format

>  <Assay Organism>  (458) 
Homo sapiens

>  <Target ChEMBL ID>  (458) 
CHEMBL4247

>  <Target Name>  (458) 
ALK tyrosine kinase receptor

>  <Target Organism>  (458) 
Homo sapiens

>  <Target Type>  (458) 
SINGLE PROTEIN

>  <Document ChEMBL ID>  (458) 
CHEMBL3886150

>  <Source Description>  (458) 
BindingDB Database

>  <Document Journal>  (458) 
nan

>  <Document Year>  (458) 
2015.0

>  <Active>  (458) 
1.0

>  <bits>  (458) 
<rdkit.DataStructs.cDataStructs.ExplicitBitVect object at 0x000002422F231850>

>  <Group>  (458) 
G2

$$$$

     RDKit          2D

 34 38  0  0  0  0  0  0  0  0999 V2000
   -3.1476   -2.1380    0.0000 C   0  0  0  0  0  0  0  0  0  0  0  0
   -1.6852   -2.4718    0.0000 C   0  0  0  0  0  0  0  0  0  0  0  0
   -1.3515   -3.9342    0.0000 C   0  0  0  0  0  0  0  0  0  0  0  0
   -0.0000   -4.5850    0.0000 N   0  0  0  0  0  0  0  0  0  0  0  0
   -0.0000   -6.0850    0.0000 C   0  0  0  0  0  0  0  0  0  0  0  0
    1.3515   -3.9342    0.0000 C   0  0  0  0  0  0  0  0  0  0  0  0
    1.6852   -2.4718    0.0000 C   0  0  0  0  0  0  0  0  0  0  0  0
    0.7500   -1.2990    0.0000 C   0  0  0  0  0  0  0  0  0  0  0  0
    1.5000    0.0000    0.0000 C   0  0  0  0  0  0  0  0  0  0  0  0
    0.7500    1.2990    0.0000 C   0  0  0  0  0  0  0  0  0  0  0  0
   -0.7500    1.2990    0.0000 C   0  0  0  0  0  0  0  0  0  0  0  0
   -1.5000    2.5981    0.0000 N   0  0  0  0  0  0  0  0  0  0  0  0
   -0.7500    3.8971    0.0000 C   0  0  0  0  0  0  0  0  0  0  0  0
    0.7500    3.8971    0.0000 N   0  0  0  0  0  0  0  0  0  0  0  0
    1.5000    5.1962    0.0000 C   0  0  0  0  0  0  0  0  0  0  0  0
    0.7500    6.4952    0.0000 C   0  0  0  0  0  0  0  0  0  0  0  0
    1.5000    7.7942    0.0000 Cl  0  0  0  0  0  0  0  0  0  0  0  0
   -0.7500    6.4952    0.0000 C   0  0  0  0  0  0  0  0  0  0  0  0
   -1.5000    7.7942    0.0000 N   0  0  0  0  0  0  0  0  0  0  0  0
   -3.0000    7.7942    0.0000 C   0  0  0  0  0  0  0  0  0  0  0  0
   -3.7500    6.4952    0.0000 C   0  0  0  0  0  0  0  0  0  0  0  0
   -5.2500    6.4952    0.0000 C   0  0  0  0  0  0  0  0  0  0  0  0
   -6.0000    7.7942    0.0000 C   0  0  0  0  0  0  0  0  0  0  0  0
   -5.2500    9.0933    0.0000 C   0  0  0  0  0  0  0  0  0  0  0  0
   -3.7500    9.0933    0.0000 C   0  0  0  0  0  0  0  0  0  0  0  0
   -3.0000   10.3923    0.0000 S   0  0  0  0  0  0  0  0  0  0  0  0
   -1.7010    9.6423    0.0000 O   0  0  0  0  0  0  0  0  0  0  0  0
   -4.2990   11.1423    0.0000 O   0  0  0  0  0  0  0  0  0  0  0  0
   -2.2500   11.6913    0.0000 C   0  0  0  0  0  0  0  0  0  0  0  0
   -2.2500   13.1913    0.0000 C   0  0  0  0  0  0  0  0  0  0  0  0
   -0.9510   12.4413    0.0000 C   0  0  0  0  0  0  0  0  0  0  0  0
   -1.5000    5.1962    0.0000 N   0  0  0  0  0  0  0  0  0  0  0  0
   -1.5000    0.0000    0.0000 C   0  0  0  0  0  0  0  0  0  0  0  0
   -0.7500   -1.2990    0.0000 C   0  0  0  0  0  0  0  0  0  0  0  0
  1  2  1  0
  2  3  1  0
  3  4  1  0
  4  5  1  0
  4  6  1  0
  6  7  1  0
  7  8  1  0
  8  9  2  0
  9 10  1  0
 10 11  2  0
 11 12  1  0
 12 13  1  0
 13 14  2  0
 14 15  1  0
 15 16  2  0
 16 17  1  0
 16 18  1  0
 18 19  1  0
 19 20  1  0
 20 21  2  0
 21 22  1  0
 22 23  2  0
 23 24  1  0
 24 25  2  0
 25 26  1  0
 26 27  2  0
 26 28  2  0
 26 29  1  0
 29 30  1  0
 30 31  1  0
 18 32  2  0
 11 33  1  0
 33 34  2  0
 34  2  1  0
 34  8  1  0
 32 13  1  0
 25 20  1  0
 31 29  1  0
M  END
>  <Compound_ID>  (459) 
CHEMBL3263991

>  <Molecule Name>  (459) 
nan

>  <Molecular Weight>  (459) 
498.05

>  <AlogP>  (459) 
5.14

>  <Smiles>  (459) 
CC1CN(C)CCc2ccc(Nc3ncc(Cl)c(Nc4ccccc4S(=O)(=O)C4CC4)n3)cc21

>  <Standard Type>  (459) 
IC50

>  <Standard Relation>  (459) 
'='

>  <Standard Units>  (459) 
nM

>  <Standard Value>  (459) 
7.1

>  <Assay ChEMBL ID>  (459) 
CHEMBL3267806

>  <Assay Description>  (459) 
Inhibition of purified recombinant ALK (unknown origin) after 60 mins by ELISA

>  <BAO Format ID>  (459) 
BAO_0000357

>  <BAO Label>  (459) 
single protein format

>  <Assay Organism>  (459) 
Homo sapiens

>  <Target ChEMBL ID>  (459) 
CHEMBL4247

>  <Target Name>  (459) 
ALK tyrosine kinase receptor

>  <Target Organism>  (459) 
Homo sapiens

>  <Target Type>  (459) 
SINGLE PROTEIN

>  <Document ChEMBL ID>  (459) 
CHEMBL3259567

>  <Source Description>  (459) 
Scientific Literature

>  <Document Journal>  (459) 
ACS Med Chem Lett

>  <Document Year>  (459) 
2014.0

>  <Active>  (459) 
1.0

>  <bits>  (459) 
<rdkit.DataStructs.cDataStructs.ExplicitBitVect object at 0x000002422F231A80>

>  <Group>  (459) 
G2

$$$$

     RDKit          2D

 34 37  0  0  0  0  0  0  0  0999 V2000
    5.2500  -11.6913    0.0000 C   0  0  0  0  0  0  0  0  0  0  0  0
    3.7500  -11.6913    0.0000 N   0  0  0  0  0  0  0  0  0  0  0  0
    3.0000  -10.3923    0.0000 C   0  0  0  0  0  0  0  0  0  0  0  0
    3.7500   -9.0933    0.0000 O   0  0  0  0  0  0  0  0  0  0  0  0
    1.5000  -10.3923    0.0000 C   0  0  0  0  0  0  0  0  0  0  0  0
    0.7500  -11.6913    0.0000 C   0  0  0  0  0  0  0  0  0  0  0  0
   -0.7500  -11.6913    0.0000 C   0  0  0  0  0  0  0  0  0  0  0  0
   -1.5000  -10.3923    0.0000 C   0  0  0  0  0  0  0  0  0  0  0  0
   -0.7500   -9.0933    0.0000 C   0  0  0  0  0  0  0  0  0  0  0  0
    0.7500   -9.0933    0.0000 C   0  0  0  0  0  0  0  0  0  0  0  0
    1.5000   -7.7942    0.0000 N   0  0  0  0  0  0  0  0  0  0  0  0
    0.7500   -6.4952    0.0000 C   0  0  0  0  0  0  0  0  0  0  0  0
    1.5000   -5.1962    0.0000 N   0  0  0  0  0  0  0  0  0  0  0  0
    0.7500   -3.8971    0.0000 C   0  0  0  0  0  0  0  0  0  0  0  0
    1.5000   -2.5981    0.0000 N   0  0  0  0  0  0  0  0  0  0  0  0
    0.7500   -1.2990    0.0000 C   0  0  0  0  0  0  0  0  0  0  0  0
    1.5000    0.0000    0.0000 C   0  0  0  0  0  0  0  0  0  0  0  0
    0.7500    1.2990    0.0000 C   0  0  0  0  0  0  0  0  0  0  0  0
   -0.7500    1.2990    0.0000 C   0  0  0  0  0  0  0  0  0  0  0  0
   -1.5000    0.0000    0.0000 C   0  0  0  0  0  0  0  0  0  0  0  0
   -0.7500   -1.2990    0.0000 C   0  0  0  0  0  0  0  0  0  0  0  0
   -2.9832   -0.2236    0.0000 C   0  0  0  0  0  0  0  0  0  0  0  0
   -3.4254   -1.6569    0.0000 C   0  0  0  0  0  0  0  0  0  0  0  0
   -4.0828    0.7967    0.0000 C   0  0  0  0  0  0  0  0  0  0  0  0
   -3.9707    2.2925    0.0000 N   0  0  0  0  0  0  0  0  0  0  0  0
   -5.2698    3.0425    0.0000 C   0  0  0  0  0  0  0  0  0  0  0  0
   -5.2698    4.5425    0.0000 C   0  0  0  0  0  0  0  0  0  0  0  0
   -6.5688    2.2925    0.0000 O   0  0  0  0  0  0  0  0  0  0  0  0
   -2.7314    3.1375    0.0000 C   0  0  0  0  0  0  0  0  0  0  0  0
   -1.2980    2.6953    0.0000 C   0  0  0  0  0  0  0  0  0  0  0  0
   -0.7500   -3.8971    0.0000 N   0  0  0  0  0  0  0  0  0  0  0  0
   -1.5000   -5.1962    0.0000 C   0  0  0  0  0  0  0  0  0  0  0  0
   -0.7500   -6.4952    0.0000 C   0  0  0  0  0  0  0  0  0  0  0  0
   -1.5000   -7.7942    0.0000 Cl  0  0  0  0  0  0  0  0  0  0  0  0
  1  2  1  0
  2  3  1  0
  3  4  2  0
  3  5  1  0
  5  6  2  0
  6  7  1  0
  7  8  2  0
  8  9  1  0
  9 10  2  0
 10 11  1  0
 11 12  1  0
 12 13  2  0
 13 14  1  0
 14 15  1  0
 15 16  1  0
 16 17  2  0
 17 18  1  0
 18 19  2  0
 19 20  1  0
 20 21  2  0
 20 22  1  0
 22 23  1  0
 22 24  1  0
 24 25  1  0
 25 26  1  0
 26 27  1  0
 26 28  2  0
 25 29  1  0
 29 30  1  0
 14 31  2  0
 31 32  1  0
 32 33  2  0
 33 34  1  0
 10  5  1  0
 33 12  1  0
 21 16  1  0
 30 19  1  0
M  END
>  <Compound_ID>  (460) 
CHEMBL3263982

>  <Molecule Name>  (460) 
nan

>  <Molecular Weight>  (460) 
478.98

>  <AlogP>  (460) 
4.48

>  <Smiles>  (460) 
CNC(=O)c1ccccc1Nc1nc(Nc2ccc3c(c2)C(C)CN(C(C)=O)CC3)ncc1Cl

>  <Standard Type>  (460) 
IC50

>  <Standard Relation>  (460) 
'='

>  <Standard Units>  (460) 
nM

>  <Standard Value>  (460) 
53.0

>  <Assay ChEMBL ID>  (460) 
CHEMBL3267806

>  <Assay Description>  (460) 
Inhibition of purified recombinant ALK (unknown origin) after 60 mins by ELISA

>  <BAO Format ID>  (460) 
BAO_0000357

>  <BAO Label>  (460) 
single protein format

>  <Assay Organism>  (460) 
Homo sapiens

>  <Target ChEMBL ID>  (460) 
CHEMBL4247

>  <Target Name>  (460) 
ALK tyrosine kinase receptor

>  <Target Organism>  (460) 
Homo sapiens

>  <Target Type>  (460) 
SINGLE PROTEIN

>  <Document ChEMBL ID>  (460) 
CHEMBL3259567

>  <Source Description>  (460) 
Scientific Literature

>  <Document Journal>  (460) 
ACS Med Chem Lett

>  <Document Year>  (460) 
2014.0

>  <Active>  (460) 
1.0

>  <bits>  (460) 
<rdkit.DataStructs.cDataStructs.ExplicitBitVect object at 0x000002422F2325E0>

>  <Group>  (460) 
G2

$$$$

     RDKit          2D

 35 39  0  0  0  0  0  0  0  0999 V2000
    1.6431  -12.8296    0.0000 C   0  0  0  0  0  0  0  0  0  0  0  0
    0.4296  -11.9479    0.0000 N   0  0  0  0  0  0  0  0  0  0  0  0
   -0.9408  -12.5580    0.0000 C   0  0  0  0  0  0  0  0  0  0  0  0
   -2.1543  -11.6763    0.0000 C   0  0  0  0  0  0  0  0  0  0  0  0
   -1.9975  -10.1845    0.0000 C   0  0  0  0  0  0  0  0  0  0  0  0
   -3.2110   -9.3029    0.0000 O   0  0  0  0  0  0  0  0  0  0  0  0
   -3.0542   -7.8111    0.0000 C   0  0  0  0  0  0  0  0  0  0  0  0
   -1.6839   -7.2010    0.0000 C   0  0  0  0  0  0  0  0  0  0  0  0
   -1.5271   -5.7092    0.0000 C   0  0  0  0  0  0  0  0  0  0  0  0
   -2.7406   -4.8275    0.0000 C   0  0  0  0  0  0  0  0  0  0  0  0
   -4.1110   -5.4376    0.0000 C   0  0  0  0  0  0  0  0  0  0  0  0
   -4.2677   -6.9294    0.0000 C   0  0  0  0  0  0  0  0  0  0  0  0
   -5.6381   -7.5395    0.0000 N   0  0  0  0  0  0  0  0  0  0  0  0
   -6.8516   -6.6578    0.0000 S   0  0  0  0  0  0  0  0  0  0  0  0
   -8.0651   -5.7761    0.0000 C   0  0  0  0  0  0  0  0  0  0  0  0
   -5.9699   -5.4443    0.0000 O   0  0  0  0  0  0  0  0  0  0  0  0
   -7.7333   -7.8714    0.0000 O   0  0  0  0  0  0  0  0  0  0  0  0
   -2.5838   -3.3357    0.0000 C   0  0  0  0  0  0  0  0  0  0  0  0
   -3.7974   -2.4540    0.0000 O   0  0  0  0  0  0  0  0  0  0  0  0
   -1.2135   -2.7256    0.0000 C   0  0  0  0  0  0  0  0  0  0  0  0
   -0.0000   -3.6073    0.0000 C   0  0  0  0  0  0  0  0  0  0  0  0
    1.2135   -2.7256    0.0000 N   0  0  0  0  0  0  0  0  0  0  0  0
    0.7500   -1.2990    0.0000 C   0  0  0  0  0  0  0  0  0  0  0  0
    1.5000    0.0000    0.0000 C   0  0  0  0  0  0  0  0  0  0  0  0
    0.7500    1.2990    0.0000 C   0  0  0  0  0  0  0  0  0  0  0  0
    1.5000    2.5981    0.0000 C   0  0  0  0  0  0  0  0  0  0  0  0
    2.2500    3.8971    0.0000 N   0  0  0  0  0  0  0  0  0  0  0  0
   -0.7500    1.2990    0.0000 C   0  0  0  0  0  0  0  0  0  0  0  0
   -1.5000    0.0000    0.0000 C   0  0  0  0  0  0  0  0  0  0  0  0
   -0.7500   -1.2990    0.0000 C   0  0  0  0  0  0  0  0  0  0  0  0
   -0.1568   -5.0991    0.0000 C   0  0  0  0  0  0  0  0  0  0  0  0
    0.2061   -6.5545    0.0000 C   0  0  0  0  0  0  0  0  0  0  0  0
    1.3396   -4.9944    0.0000 C   0  0  0  0  0  0  0  0  0  0  0  0
   -0.6272   -9.5744    0.0000 C   0  0  0  0  0  0  0  0  0  0  0  0
    0.5864  -10.4561    0.0000 C   0  0  0  0  0  0  0  0  0  0  0  0
  1  2  1  0
  2  3  1  0
  3  4  1  0
  4  5  1  0
  5  6  1  0
  6  7  1  0
  7  8  2  0
  8  9  1  0
  9 10  2  0
 10 11  1  0
 11 12  2  0
 12 13  1  0
 13 14  1  0
 14 15  1  0
 14 16  2  0
 14 17  2  0
 10 18  1  0
 18 19  2  0
 18 20  1  0
 20 21  2  0
 21 22  1  0
 22 23  1  0
 23 24  2  0
 24 25  1  0
 25 26  1  0
 26 27  3  0
 25 28  2  0
 28 29  1  0
 29 30  2  0
 21 31  1  0
 31 32  1  0
 31 33  1  0
  5 34  1  0
 34 35  1  0
 35  2  1  0
 12  7  1  0
 30 20  1  0
 31  9  1  0
 30 23  1  0
M  END
>  <Compound_ID>  (461) 
CHEMBL3978523

>  <Molecule Name>  (461) 
nan

>  <Molecular Weight>  (461) 
492.6

>  <AlogP>  (461) 
3.75

>  <Smiles>  (461) 
CN1CCC(Oc2cc3c(cc2NS(C)(=O)=O)C(=O)c2c([nH]c4cc(C#N)ccc24)C3(C)C)CC1

>  <Standard Type>  (461) 
IC50

>  <Standard Relation>  (461) 
'='

>  <Standard Units>  (461) 
nM

>  <Standard Value>  (461) 
6.28

>  <Assay ChEMBL ID>  (461) 
CHEMBL3887074

>  <Assay Description>  (461) 
Inhibition Assay: ALK-inhibiting activity was measured by following an activity of inhibiting phosphorylation by biotinylated peptide (EGPWLEEEEEAYGWMDF). For the detection of phosphorylation of the biotinylated peptide, time-resolved fluorescence measurement was performed using an anti-phosphorylated tyrosine antibody labeled with europium cryptate and streptavidin conjugated to XL665, i.e., an allophycocyanin derivative.

>  <BAO Format ID>  (461) 
BAO_0000357

>  <BAO Label>  (461) 
single protein format

>  <Assay Organism>  (461) 
Homo sapiens

>  <Target ChEMBL ID>  (461) 
CHEMBL4247

>  <Target Name>  (461) 
ALK tyrosine kinase receptor

>  <Target Organism>  (461) 
Homo sapiens

>  <Target Type>  (461) 
SINGLE PROTEIN

>  <Document ChEMBL ID>  (461) 
CHEMBL3886150

>  <Source Description>  (461) 
BindingDB Database

>  <Document Journal>  (461) 
nan

>  <Document Year>  (461) 
2015.0

>  <Active>  (461) 
1.0

>  <bits>  (461) 
<rdkit.DataStructs.cDataStructs.ExplicitBitVect object at 0x000002422F232A40>

>  <Group>  (461) 
G2

$$$$

     RDKit          2D

 28 31  0  0  0  0  0  0  0  0999 V2000
   -4.5813   -9.9130    0.0000 C   0  0  0  0  0  0  0  0  0  0  0  0
   -3.2110   -9.3029    0.0000 O   0  0  0  0  0  0  0  0  0  0  0  0
   -3.0542   -7.8111    0.0000 C   0  0  0  0  0  0  0  0  0  0  0  0
   -1.6839   -7.2010    0.0000 C   0  0  0  0  0  0  0  0  0  0  0  0
   -1.5271   -5.7092    0.0000 C   0  0  0  0  0  0  0  0  0  0  0  0
   -2.7406   -4.8275    0.0000 C   0  0  0  0  0  0  0  0  0  0  0  0
   -4.1110   -5.4376    0.0000 C   0  0  0  0  0  0  0  0  0  0  0  0
   -4.2677   -6.9294    0.0000 C   0  0  0  0  0  0  0  0  0  0  0  0
   -5.6381   -7.5395    0.0000 S   0  0  0  0  0  0  0  0  0  0  0  0
   -6.8516   -6.6578    0.0000 C   0  0  0  0  0  0  0  0  0  0  0  0
   -8.2219   -7.2679    0.0000 C   0  0  0  0  0  0  0  0  0  0  0  0
   -6.6948   -5.1660    0.0000 C   0  0  0  0  0  0  0  0  0  0  0  0
   -2.5838   -3.3357    0.0000 C   0  0  0  0  0  0  0  0  0  0  0  0
   -3.7974   -2.4540    0.0000 O   0  0  0  0  0  0  0  0  0  0  0  0
   -1.2135   -2.7256    0.0000 C   0  0  0  0  0  0  0  0  0  0  0  0
   -0.0000   -3.6073    0.0000 C   0  0  0  0  0  0  0  0  0  0  0  0
    1.2135   -2.7256    0.0000 N   0  0  0  0  0  0  0  0  0  0  0  0
    0.7500   -1.2990    0.0000 C   0  0  0  0  0  0  0  0  0  0  0  0
    1.5000    0.0000    0.0000 C   0  0  0  0  0  0  0  0  0  0  0  0
    0.7500    1.2990    0.0000 C   0  0  0  0  0  0  0  0  0  0  0  0
    1.5000    2.5981    0.0000 C   0  0  0  0  0  0  0  0  0  0  0  0
    2.2500    3.8971    0.0000 N   0  0  0  0  0  0  0  0  0  0  0  0
   -0.7500    1.2990    0.0000 C   0  0  0  0  0  0  0  0  0  0  0  0
   -1.5000    0.0000    0.0000 C   0  0  0  0  0  0  0  0  0  0  0  0
   -0.7500   -1.2990    0.0000 C   0  0  0  0  0  0  0  0  0  0  0  0
   -0.1568   -5.0991    0.0000 C   0  0  0  0  0  0  0  0  0  0  0  0
    0.2061   -6.5545    0.0000 C   0  0  0  0  0  0  0  0  0  0  0  0
    1.3396   -4.9944    0.0000 C   0  0  0  0  0  0  0  0  0  0  0  0
  1  2  1  0
  2  3  1  0
  3  4  2  0
  4  5  1  0
  5  6  2  0
  6  7  1  0
  7  8  2  0
  8  9  1  0
  9 10  1  0
 10 11  1  0
 10 12  1  0
  6 13  1  0
 13 14  2  0
 13 15  1  0
 15 16  2  0
 16 17  1  0
 17 18  1  0
 18 19  2  0
 19 20  1  0
 20 21  1  0
 21 22  3  0
 20 23  2  0
 23 24  1  0
 24 25  2  0
 16 26  1  0
 26 27  1  0
 26 28  1  0
  8  3  1  0
 25 15  1  0
 26  5  1  0
 25 18  1  0
M  END
>  <Compound_ID>  (462) 
CHEMBL3949427

>  <Molecule Name>  (462) 
nan

>  <Molecular Weight>  (462) 
390.51

>  <AlogP>  (462) 
5.42

>  <Smiles>  (462) 
COc1cc2c(cc1SC(C)C)C(=O)c1c([nH]c3cc(C#N)ccc13)C2(C)C

>  <Standard Type>  (462) 
IC50

>  <Standard Relation>  (462) 
'='

>  <Standard Units>  (462) 
nM

>  <Standard Value>  (462) 
9.451

>  <Assay ChEMBL ID>  (462) 
CHEMBL3887074

>  <Assay Description>  (462) 
Inhibition Assay: ALK-inhibiting activity was measured by following an activity of inhibiting phosphorylation by biotinylated peptide (EGPWLEEEEEAYGWMDF). For the detection of phosphorylation of the biotinylated peptide, time-resolved fluorescence measurement was performed using an anti-phosphorylated tyrosine antibody labeled with europium cryptate and streptavidin conjugated to XL665, i.e., an allophycocyanin derivative.

>  <BAO Format ID>  (462) 
BAO_0000357

>  <BAO Label>  (462) 
single protein format

>  <Assay Organism>  (462) 
Homo sapiens

>  <Target ChEMBL ID>  (462) 
CHEMBL4247

>  <Target Name>  (462) 
ALK tyrosine kinase receptor

>  <Target Organism>  (462) 
Homo sapiens

>  <Target Type>  (462) 
SINGLE PROTEIN

>  <Document ChEMBL ID>  (462) 
CHEMBL3886150

>  <Source Description>  (462) 
BindingDB Database

>  <Document Journal>  (462) 
nan

>  <Document Year>  (462) 
2015.0

>  <Active>  (462) 
1.0

>  <bits>  (462) 
<rdkit.DataStructs.cDataStructs.ExplicitBitVect object at 0x000002422F232FF0>

>  <Group>  (462) 
G2

$$$$

     RDKit          2D

 28 32  0  0  0  0  0  0  0  0999 V2000
    2.6491   -3.5623    0.0000 C   0  0  0  0  0  0  0  0  0  0  0  0
    1.5000   -2.5981    0.0000 C   0  0  0  0  0  0  0  0  0  0  0  0
    2.6491   -1.6339    0.0000 C   0  0  0  0  0  0  0  0  0  0  0  0
    0.7500   -1.2990    0.0000 C   0  0  0  0  0  0  0  0  0  0  0  0
    1.5000    0.0000    0.0000 C   0  0  0  0  0  0  0  0  0  0  0  0
    0.7500    1.2990    0.0000 C   0  0  0  0  0  0  0  0  0  0  0  0
   -0.7500    1.2990    0.0000 C   0  0  0  0  0  0  0  0  0  0  0  0
   -1.5000    2.5981    0.0000 C   0  0  0  0  0  0  0  0  0  0  0  0
   -0.7500    3.8971    0.0000 C   0  0  0  0  0  0  0  0  0  0  0  0
   -1.5000    5.1962    0.0000 C   0  0  0  0  0  0  0  0  0  0  0  0
   -3.0000    5.1962    0.0000 N   0  0  0  0  0  0  0  0  0  0  0  0
   -3.7500    3.8971    0.0000 C   0  0  0  0  0  0  0  0  0  0  0  0
   -3.0000    2.5981    0.0000 C   0  0  0  0  0  0  0  0  0  0  0  0
   -1.5000    0.0000    0.0000 C   0  0  0  0  0  0  0  0  0  0  0  0
   -0.7500   -1.2990    0.0000 C   0  0  0  0  0  0  0  0  0  0  0  0
   -1.5000   -2.5981    0.0000 C   0  0  0  0  0  0  0  0  0  0  0  0
   -3.0000   -2.5981    0.0000 O   0  0  0  0  0  0  0  0  0  0  0  0
   -0.7500   -3.8971    0.0000 C   0  0  0  0  0  0  0  0  0  0  0  0
    0.7500   -3.8971    0.0000 C   0  0  0  0  0  0  0  0  0  0  0  0
    1.2135   -5.3237    0.0000 N   0  0  0  0  0  0  0  0  0  0  0  0
    0.0000   -6.2054    0.0000 C   0  0  0  0  0  0  0  0  0  0  0  0
   -0.1568   -7.6972    0.0000 C   0  0  0  0  0  0  0  0  0  0  0  0
   -1.5271   -8.3073    0.0000 C   0  0  0  0  0  0  0  0  0  0  0  0
   -1.6839   -9.7990    0.0000 C   0  0  0  0  0  0  0  0  0  0  0  0
   -1.8407  -11.2908    0.0000 N   0  0  0  0  0  0  0  0  0  0  0  0
   -2.7406   -7.4256    0.0000 C   0  0  0  0  0  0  0  0  0  0  0  0
   -2.5838   -5.9338    0.0000 C   0  0  0  0  0  0  0  0  0  0  0  0
   -1.2135   -5.3237    0.0000 C   0  0  0  0  0  0  0  0  0  0  0  0
  1  2  1  0
  2  3  1  0
  2  4  1  0
  4  5  2  0
  5  6  1  0
  6  7  2  0
  7  8  1  0
  8  9  2  0
  9 10  1  0
 10 11  1  0
 11 12  1  0
 12 13  1  0
  7 14  1  0
 14 15  2  0
 15 16  1  0
 16 17  2  0
 16 18  1  0
 18 19  2  0
 19 20  1  0
 20 21  1  0
 21 22  2  0
 22 23  1  0
 23 24  1  0
 24 25  3  0
 23 26  2  0
 26 27  1  0
 27 28  2  0
 19  2  1  0
 28 21  1  0
 15  4  1  0
 28 18  1  0
 13  8  1  0
M  END
>  <Compound_ID>  (463) 
CHEMBL3896252

>  <Molecule Name>  (463) 
nan

>  <Molecular Weight>  (463) 
367.45

>  <AlogP>  (463) 
4.29

>  <Smiles>  (463) 
CC1(C)c2ccc(C3=CCNCC3)cc2C(=O)c2c1[nH]c1cc(C#N)ccc21

>  <Standard Type>  (463) 
IC50

>  <Standard Relation>  (463) 
'='

>  <Standard Units>  (463) 
nM

>  <Standard Value>  (463) 
0.83

>  <Assay ChEMBL ID>  (463) 
CHEMBL3887074

>  <Assay Description>  (463) 
Inhibition Assay: ALK-inhibiting activity was measured by following an activity of inhibiting phosphorylation by biotinylated peptide (EGPWLEEEEEAYGWMDF). For the detection of phosphorylation of the biotinylated peptide, time-resolved fluorescence measurement was performed using an anti-phosphorylated tyrosine antibody labeled with europium cryptate and streptavidin conjugated to XL665, i.e., an allophycocyanin derivative.

>  <BAO Format ID>  (463) 
BAO_0000357

>  <BAO Label>  (463) 
single protein format

>  <Assay Organism>  (463) 
Homo sapiens

>  <Target ChEMBL ID>  (463) 
CHEMBL4247

>  <Target Name>  (463) 
ALK tyrosine kinase receptor

>  <Target Organism>  (463) 
Homo sapiens

>  <Target Type>  (463) 
SINGLE PROTEIN

>  <Document ChEMBL ID>  (463) 
CHEMBL3886150

>  <Source Description>  (463) 
BindingDB Database

>  <Document Journal>  (463) 
nan

>  <Document Year>  (463) 
2015.0

>  <Active>  (463) 
1.0

>  <bits>  (463) 
<rdkit.DataStructs.cDataStructs.ExplicitBitVect object at 0x000002422F233CA0>

>  <Group>  (463) 
G2

$$$$

     RDKit          2D

 34 37  0  0  0  0  0  0  0  0999 V2000
    9.0000    2.5981    0.0000 C   0  0  0  0  0  0  0  0  0  0  0  0
    7.5000    2.5981    0.0000 C   0  0  0  0  0  0  0  0  0  0  0  0
    6.7500    3.8971    0.0000 C   0  0  0  0  0  0  0  0  0  0  0  0
    6.7500    1.2990    0.0000 N   0  0  0  0  0  0  0  0  0  0  0  0
    5.2500    1.2990    0.0000 C   0  0  0  0  0  0  0  0  0  0  0  0
    4.5000    0.0000    0.0000 C   0  0  0  0  0  0  0  0  0  0  0  0
    3.0000    0.0000    0.0000 S   0  0  0  0  0  0  0  0  0  0  0  0
    3.0000    1.5000    0.0000 O   0  0  0  0  0  0  0  0  0  0  0  0
    3.0000   -1.5000    0.0000 O   0  0  0  0  0  0  0  0  0  0  0  0
    1.5000    0.0000    0.0000 C   0  0  0  0  0  0  0  0  0  0  0  0
    0.7500   -1.2990    0.0000 C   0  0  0  0  0  0  0  0  0  0  0  0
   -0.7500   -1.2990    0.0000 C   0  0  0  0  0  0  0  0  0  0  0  0
   -1.5000    0.0000    0.0000 C   0  0  0  0  0  0  0  0  0  0  0  0
   -0.7500    1.2990    0.0000 C   0  0  0  0  0  0  0  0  0  0  0  0
    0.7500    1.2990    0.0000 C   0  0  0  0  0  0  0  0  0  0  0  0
   -1.5000    2.5981    0.0000 C   0  0  0  0  0  0  0  0  0  0  0  0
   -1.7605    4.0753    0.0000 C   0  0  0  0  0  0  0  0  0  0  0  0
   -0.0905    3.1111    0.0000 C   0  0  0  0  0  0  0  0  0  0  0  0
   -3.0000    2.5981    0.0000 C   0  0  0  0  0  0  0  0  0  0  0  0
   -4.0037    3.7128    0.0000 N   0  0  0  0  0  0  0  0  0  0  0  0
   -5.3740    3.1027    0.0000 C   0  0  0  0  0  0  0  0  0  0  0  0
   -6.7443    3.7128    0.0000 C   0  0  0  0  0  0  0  0  0  0  0  0
   -7.9579    2.8311    0.0000 C   0  0  0  0  0  0  0  0  0  0  0  0
   -9.3282    3.4412    0.0000 C   0  0  0  0  0  0  0  0  0  0  0  0
  -10.6985    4.0513    0.0000 N   0  0  0  0  0  0  0  0  0  0  0  0
   -7.8011    1.3393    0.0000 C   0  0  0  0  0  0  0  0  0  0  0  0
   -6.4307    0.7292    0.0000 C   0  0  0  0  0  0  0  0  0  0  0  0
   -5.2172    1.6109    0.0000 C   0  0  0  0  0  0  0  0  0  0  0  0
   -3.7500    1.2990    0.0000 C   0  0  0  0  0  0  0  0  0  0  0  0
   -3.0000    0.0000    0.0000 C   0  0  0  0  0  0  0  0  0  0  0  0
   -3.7500   -1.2990    0.0000 O   0  0  0  0  0  0  0  0  0  0  0  0
    7.5000   -0.0000    0.0000 C   0  0  0  0  0  0  0  0  0  0  0  0
    9.0000   -0.0000    0.0000 C   0  0  0  0  0  0  0  0  0  0  0  0
    6.7500   -1.2990    0.0000 C   0  0  0  0  0  0  0  0  0  0  0  0
  1  2  1  0
  2  3  1  0
  2  4  1  0
  4  5  1  0
  5  6  1  0
  6  7  1  0
  7  8  2  0
  7  9  2  0
  7 10  1  0
 10 11  2  0
 11 12  1  0
 12 13  2  0
 13 14  1  0
 14 15  2  0
 14 16  1  0
 16 17  1  0
 16 18  1  0
 16 19  1  0
 19 20  1  0
 20 21  1  0
 21 22  2  0
 22 23  1  0
 23 24  1  0
 24 25  3  0
 23 26  2  0
 26 27  1  0
 27 28  2  0
 28 29  1  0
 29 30  1  0
 30 31  2  0
  4 32  1  0
 32 33  1  0
 32 34  1  0
 15 10  1  0
 29 19  2  0
 30 13  1  0
 28 21  1  0
M  END
>  <Compound_ID>  (464) 
CHEMBL3952637

>  <Molecule Name>  (464) 
nan

>  <Molecular Weight>  (464) 
477.63

>  <AlogP>  (464) 
4.80

>  <Smiles>  (464) 
CC(C)N(CCS(=O)(=O)c1ccc2c(c1)C(C)(C)c1[nH]c3cc(C#N)ccc3c1C2=O)C(C)C

>  <Standard Type>  (464) 
IC50

>  <Standard Relation>  (464) 
'='

>  <Standard Units>  (464) 
nM

>  <Standard Value>  (464) 
14.92

>  <Assay ChEMBL ID>  (464) 
CHEMBL3887074

>  <Assay Description>  (464) 
Inhibition Assay: ALK-inhibiting activity was measured by following an activity of inhibiting phosphorylation by biotinylated peptide (EGPWLEEEEEAYGWMDF). For the detection of phosphorylation of the biotinylated peptide, time-resolved fluorescence measurement was performed using an anti-phosphorylated tyrosine antibody labeled with europium cryptate and streptavidin conjugated to XL665, i.e., an allophycocyanin derivative.

>  <BAO Format ID>  (464) 
BAO_0000357

>  <BAO Label>  (464) 
single protein format

>  <Assay Organism>  (464) 
Homo sapiens

>  <Target ChEMBL ID>  (464) 
CHEMBL4247

>  <Target Name>  (464) 
ALK tyrosine kinase receptor

>  <Target Organism>  (464) 
Homo sapiens

>  <Target Type>  (464) 
SINGLE PROTEIN

>  <Document ChEMBL ID>  (464) 
CHEMBL3886150

>  <Source Description>  (464) 
BindingDB Database

>  <Document Journal>  (464) 
nan

>  <Document Year>  (464) 
2015.0

>  <Active>  (464) 
1.0

>  <bits>  (464) 
<rdkit.DataStructs.cDataStructs.ExplicitBitVect object at 0x000002422F233DF0>

>  <Group>  (464) 
G2

$$$$

     RDKit          2D

 37 42  0  0  0  0  0  0  0  0999 V2000
    1.3396   -4.9944    0.0000 C   0  0  0  0  0  0  0  0  0  0  0  0
   -0.1568   -5.0991    0.0000 C   0  0  0  0  0  0  0  0  0  0  0  0
    0.2061   -6.5545    0.0000 C   0  0  0  0  0  0  0  0  0  0  0  0
   -1.5271   -5.7092    0.0000 C   0  0  0  0  0  0  0  0  0  0  0  0
   -1.6839   -7.2010    0.0000 C   0  0  0  0  0  0  0  0  0  0  0  0
   -3.0542   -7.8111    0.0000 C   0  0  0  0  0  0  0  0  0  0  0  0
   -3.2110   -9.3029    0.0000 N   0  0  0  0  0  0  0  0  0  0  0  0
   -4.5813   -9.9130    0.0000 C   0  0  0  0  0  0  0  0  0  0  0  0
   -4.7381  -11.4047    0.0000 C   0  0  0  0  0  0  0  0  0  0  0  0
   -3.5246  -12.2864    0.0000 N   0  0  0  0  0  0  0  0  0  0  0  0
   -3.6814  -13.7782    0.0000 C   0  0  0  0  0  0  0  0  0  0  0  0
   -5.0517  -14.3883    0.0000 C   0  0  0  0  0  0  0  0  0  0  0  0
   -5.2085  -15.8801    0.0000 C   0  0  0  0  0  0  0  0  0  0  0  0
   -3.9950  -16.7618    0.0000 S   0  0  0  0  0  0  0  0  0  0  0  0
   -3.1562  -18.0053    0.0000 O   0  0  0  0  0  0  0  0  0  0  0  0
   -5.0740  -17.8038    0.0000 O   0  0  0  0  0  0  0  0  0  0  0  0
   -2.6247  -16.1517    0.0000 C   0  0  0  0  0  0  0  0  0  0  0  0
   -2.4679  -14.6599    0.0000 C   0  0  0  0  0  0  0  0  0  0  0  0
   -2.1543  -11.6763    0.0000 C   0  0  0  0  0  0  0  0  0  0  0  0
   -1.9975  -10.1845    0.0000 C   0  0  0  0  0  0  0  0  0  0  0  0
   -4.2677   -6.9294    0.0000 C   0  0  0  0  0  0  0  0  0  0  0  0
   -5.6381   -7.5395    0.0000 Br  0  0  0  0  0  0  0  0  0  0  0  0
   -4.1110   -5.4376    0.0000 C   0  0  0  0  0  0  0  0  0  0  0  0
   -2.7406   -4.8275    0.0000 C   0  0  0  0  0  0  0  0  0  0  0  0
   -2.5838   -3.3357    0.0000 C   0  0  0  0  0  0  0  0  0  0  0  0
   -3.7974   -2.4540    0.0000 O   0  0  0  0  0  0  0  0  0  0  0  0
   -1.2135   -2.7256    0.0000 C   0  0  0  0  0  0  0  0  0  0  0  0
   -0.0000   -3.6073    0.0000 C   0  0  0  0  0  0  0  0  0  0  0  0
    1.2135   -2.7256    0.0000 N   0  0  0  0  0  0  0  0  0  0  0  0
    0.7500   -1.2990    0.0000 C   0  0  0  0  0  0  0  0  0  0  0  0
    1.5000    0.0000    0.0000 C   0  0  0  0  0  0  0  0  0  0  0  0
    0.7500    1.2990    0.0000 C   0  0  0  0  0  0  0  0  0  0  0  0
    1.5000    2.5981    0.0000 C   0  0  0  0  0  0  0  0  0  0  0  0
    2.2500    3.8971    0.0000 N   0  0  0  0  0  0  0  0  0  0  0  0
   -0.7500    1.2990    0.0000 C   0  0  0  0  0  0  0  0  0  0  0  0
   -1.5000    0.0000    0.0000 C   0  0  0  0  0  0  0  0  0  0  0  0
   -0.7500   -1.2990    0.0000 C   0  0  0  0  0  0  0  0  0  0  0  0
  1  2  1  0
  2  3  1  0
  2  4  1  0
  4  5  2  0
  5  6  1  0
  6  7  1  0
  7  8  1  0
  8  9  1  0
  9 10  1  0
 10 11  1  0
 11 12  1  0
 12 13  1  0
 13 14  1  0
 14 15  2  0
 14 16  2  0
 14 17  1  0
 17 18  1  0
 10 19  1  0
 19 20  1  0
  6 21  2  0
 21 22  1  0
 21 23  1  0
 23 24  2  0
 24 25  1  0
 25 26  2  0
 25 27  1  0
 27 28  2  0
 28 29  1  0
 29 30  1  0
 30 31  2  0
 31 32  1  0
 32 33  1  0
 33 34  3  0
 32 35  2  0
 35 36  1  0
 36 37  2  0
 28  2  1  0
 37 30  1  0
 24  4  1  0
 37 27  1  0
 20  7  1  0
 18 11  1  0
M  END
>  <Compound_ID>  (465) 
CHEMBL3914907

>  <Molecule Name>  (465) 
nan

>  <Molecular Weight>  (465) 
581.54

>  <AlogP>  (465) 
4.37

>  <Smiles>  (465) 
CC1(C)c2cc(N3CCN(C4CCS(=O)(=O)CC4)CC3)c(Br)cc2C(=O)c2c1[nH]c1cc(C#N)ccc21

>  <Standard Type>  (465) 
IC50

>  <Standard Relation>  (465) 
'='

>  <Standard Units>  (465) 
nM

>  <Standard Value>  (465) 
1.134

>  <Assay ChEMBL ID>  (465) 
CHEMBL3887074

>  <Assay Description>  (465) 
Inhibition Assay: ALK-inhibiting activity was measured by following an activity of inhibiting phosphorylation by biotinylated peptide (EGPWLEEEEEAYGWMDF). For the detection of phosphorylation of the biotinylated peptide, time-resolved fluorescence measurement was performed using an anti-phosphorylated tyrosine antibody labeled with europium cryptate and streptavidin conjugated to XL665, i.e., an allophycocyanin derivative.

>  <BAO Format ID>  (465) 
BAO_0000357

>  <BAO Label>  (465) 
single protein format

>  <Assay Organism>  (465) 
Homo sapiens

>  <Target ChEMBL ID>  (465) 
CHEMBL4247

>  <Target Name>  (465) 
ALK tyrosine kinase receptor

>  <Target Organism>  (465) 
Homo sapiens

>  <Target Type>  (465) 
SINGLE PROTEIN

>  <Document ChEMBL ID>  (465) 
CHEMBL3886150

>  <Source Description>  (465) 
BindingDB Database

>  <Document Journal>  (465) 
nan

>  <Document Year>  (465) 
2015.0

>  <Active>  (465) 
1.0

>  <bits>  (465) 
<rdkit.DataStructs.cDataStructs.ExplicitBitVect object at 0x000002422F233610>

>  <Group>  (465) 
G2

$$$$

     RDKit          2D

 32 36  0  0  0  0  0  0  0  0999 V2000
   -3.0000   -7.7942    0.0000 C   0  0  0  0  0  0  0  0  0  0  0  0
   -1.5000   -7.7942    0.0000 C   0  0  0  0  0  0  0  0  0  0  0  0
   -0.7500   -9.0933    0.0000 C   0  0  0  0  0  0  0  0  0  0  0  0
   -0.7500   -6.4952    0.0000 N   0  0  0  0  0  0  0  0  0  0  0  0
   -1.5000   -5.1962    0.0000 C   0  0  0  0  0  0  0  0  0  0  0  0
   -0.7500   -3.8971    0.0000 C   0  0  0  0  0  0  0  0  0  0  0  0
    0.7500   -3.8971    0.0000 C   0  0  0  0  0  0  0  0  0  0  0  0
    1.5000   -2.5981    0.0000 C   0  0  0  0  0  0  0  0  0  0  0  0
    0.7500   -1.2990    0.0000 C   0  0  0  0  0  0  0  0  0  0  0  0
    1.5000    0.0000    0.0000 C   0  0  0  0  0  0  0  0  0  0  0  0
    0.7500    1.2990    0.0000 C   0  0  0  0  0  0  0  0  0  0  0  0
   -0.7500    1.2990    0.0000 C   0  0  0  0  0  0  0  0  0  0  0  0
   -1.5000    0.0000    0.0000 C   0  0  0  0  0  0  0  0  0  0  0  0
   -0.7500   -1.2990    0.0000 C   0  0  0  0  0  0  0  0  0  0  0  0
   -3.0000    0.0000    0.0000 C   0  0  0  0  0  0  0  0  0  0  0  0
   -3.7500   -1.2990    0.0000 O   0  0  0  0  0  0  0  0  0  0  0  0
   -3.7500    1.2990    0.0000 C   0  0  0  0  0  0  0  0  0  0  0  0
   -3.0000    2.5981    0.0000 C   0  0  0  0  0  0  0  0  0  0  0  0
   -4.0037    3.7128    0.0000 N   0  0  0  0  0  0  0  0  0  0  0  0
   -5.3740    3.1027    0.0000 C   0  0  0  0  0  0  0  0  0  0  0  0
   -6.7443    3.7128    0.0000 C   0  0  0  0  0  0  0  0  0  0  0  0
   -7.9579    2.8311    0.0000 C   0  0  0  0  0  0  0  0  0  0  0  0
   -9.3282    3.4412    0.0000 C   0  0  0  0  0  0  0  0  0  0  0  0
  -10.6985    4.0513    0.0000 N   0  0  0  0  0  0  0  0  0  0  0  0
   -7.8011    1.3393    0.0000 C   0  0  0  0  0  0  0  0  0  0  0  0
   -6.4307    0.7292    0.0000 C   0  0  0  0  0  0  0  0  0  0  0  0
   -5.2172    1.6109    0.0000 C   0  0  0  0  0  0  0  0  0  0  0  0
   -1.5000    2.5981    0.0000 C   0  0  0  0  0  0  0  0  0  0  0  0
   -0.0905    3.1111    0.0000 C   0  0  0  0  0  0  0  0  0  0  0  0
   -1.7605    4.0753    0.0000 C   0  0  0  0  0  0  0  0  0  0  0  0
    1.5000   -5.1962    0.0000 C   0  0  0  0  0  0  0  0  0  0  0  0
    0.7500   -6.4952    0.0000 C   0  0  0  0  0  0  0  0  0  0  0  0
  1  2  1  0
  2  3  1  0
  2  4  1  0
  4  5  1  0
  5  6  1  0
  6  7  1  0
  7  8  1  0
  8  9  1  0
  9 10  2  0
 10 11  1  0
 11 12  2  0
 12 13  1  0
 13 14  2  0
 13 15  1  0
 15 16  2  0
 15 17  1  0
 17 18  2  0
 18 19  1  0
 19 20  1  0
 20 21  2  0
 21 22  1  0
 22 23  1  0
 23 24  3  0
 22 25  2  0
 25 26  1  0
 26 27  2  0
 18 28  1  0
 28 29  1  0
 28 30  1  0
  7 31  1  0
 31 32  1  0
 32  4  1  0
 14  9  1  0
 27 17  1  0
 28 12  1  0
 27 20  1  0
M  END
>  <Compound_ID>  (466) 
CHEMBL3931742

>  <Molecule Name>  (466) 
nan

>  <Molecular Weight>  (466) 
425.58

>  <AlogP>  (466) 
5.57

>  <Smiles>  (466) 
CC(C)N1CCC(Cc2ccc3c(c2)C(=O)c2c([nH]c4cc(C#N)ccc24)C3(C)C)CC1

>  <Standard Type>  (466) 
IC50

>  <Standard Relation>  (466) 
'='

>  <Standard Units>  (466) 
nM

>  <Standard Value>  (466) 
11.73

>  <Assay ChEMBL ID>  (466) 
CHEMBL3887074

>  <Assay Description>  (466) 
Inhibition Assay: ALK-inhibiting activity was measured by following an activity of inhibiting phosphorylation by biotinylated peptide (EGPWLEEEEEAYGWMDF). For the detection of phosphorylation of the biotinylated peptide, time-resolved fluorescence measurement was performed using an anti-phosphorylated tyrosine antibody labeled with europium cryptate and streptavidin conjugated to XL665, i.e., an allophycocyanin derivative.

>  <BAO Format ID>  (466) 
BAO_0000357

>  <BAO Label>  (466) 
single protein format

>  <Assay Organism>  (466) 
Homo sapiens

>  <Target ChEMBL ID>  (466) 
CHEMBL4247

>  <Target Name>  (466) 
ALK tyrosine kinase receptor

>  <Target Organism>  (466) 
Homo sapiens

>  <Target Type>  (466) 
SINGLE PROTEIN

>  <Document ChEMBL ID>  (466) 
CHEMBL3886150

>  <Source Description>  (466) 
BindingDB Database

>  <Document Journal>  (466) 
nan

>  <Document Year>  (466) 
2015.0

>  <Active>  (466) 
1.0

>  <bits>  (466) 
<rdkit.DataStructs.cDataStructs.ExplicitBitVect object at 0x000002422F230660>

>  <Group>  (466) 
G2

$$$$

     RDKit          2D

 37 41  0  0  0  0  0  0  0  0999 V2000
    3.5260    1.2990    0.0000 C   0  0  0  0  0  0  0  0  0  0  0  0
    2.7760    0.0000    0.0000 C   0  0  0  0  0  0  0  0  0  0  0  0
    1.2760    0.0000    0.0000 C   0  0  0  0  0  0  0  0  0  0  0  0
    0.3943    1.2135    0.0000 N   0  0  0  0  0  0  0  0  0  0  0  0
   -1.0323    0.7500    0.0000 N   0  0  0  0  0  0  0  0  0  0  0  0
   -1.0323   -0.7500    0.0000 C   0  0  0  0  0  0  0  0  0  0  0  0
   -2.1470   -1.7537    0.0000 C   0  0  0  0  0  0  0  0  0  0  0  0
   -3.5736   -1.2902    0.0000 C   0  0  0  0  0  0  0  0  0  0  0  0
   -4.6883   -2.2939    0.0000 N   0  0  0  0  0  0  0  0  0  0  0  0
   -3.8855    0.1771    0.0000 O   0  0  0  0  0  0  0  0  0  0  0  0
   -1.8351   -3.2209    0.0000 C   0  0  0  0  0  0  0  0  0  0  0  0
   -2.9499   -4.2246    0.0000 N   0  0  0  0  0  0  0  0  0  0  0  0
   -2.6380   -5.6918    0.0000 C   0  0  0  0  0  0  0  0  0  0  0  0
   -3.7527   -6.6955    0.0000 C   0  0  0  0  0  0  0  0  0  0  0  0
   -3.4408   -8.1628    0.0000 C   0  0  0  0  0  0  0  0  0  0  0  0
   -2.0143   -8.6263    0.0000 C   0  0  0  0  0  0  0  0  0  0  0  0
   -1.7024  -10.0935    0.0000 N   0  0  0  0  0  0  0  0  0  0  0  0
   -2.8171  -11.0972    0.0000 C   0  0  0  0  0  0  0  0  0  0  0  0
   -2.5052  -12.5644    0.0000 C   0  0  0  0  0  0  0  0  0  0  0  0
   -1.0786  -13.0279    0.0000 N   0  0  0  0  0  0  0  0  0  0  0  0
    0.0361  -12.0242    0.0000 C   0  0  0  0  0  0  0  0  0  0  0  0
   -0.2758  -10.5570    0.0000 C   0  0  0  0  0  0  0  0  0  0  0  0
   -0.8995   -7.6226    0.0000 C   0  0  0  0  0  0  0  0  0  0  0  0
   -1.2114   -6.1554    0.0000 C   0  0  0  0  0  0  0  0  0  0  0  0
   -0.0967   -5.1517    0.0000 O   0  0  0  0  0  0  0  0  0  0  0  0
    1.3299   -5.6152    0.0000 C   0  0  0  0  0  0  0  0  0  0  0  0
   -0.4086   -3.6844    0.0000 N   0  0  0  0  0  0  0  0  0  0  0  0
    0.7062   -2.6807    0.0000 C   0  0  0  0  0  0  0  0  0  0  0  0
    2.1328   -3.1443    0.0000 C   0  0  0  0  0  0  0  0  0  0  0  0
    3.2475   -2.1406    0.0000 C   0  0  0  0  0  0  0  0  0  0  0  0
    2.9356   -0.6734    0.0000 C   0  0  0  0  0  0  0  0  0  0  0  0
    4.0503    0.3303    0.0000 C   0  0  0  0  0  0  0  0  0  0  0  0
    5.4769   -0.1332    0.0000 C   0  0  0  0  0  0  0  0  0  0  0  0
    5.7888   -1.6004    0.0000 C   0  0  0  0  0  0  0  0  0  0  0  0
    4.6741   -2.6041    0.0000 C   0  0  0  0  0  0  0  0  0  0  0  0
    4.9859   -4.0713    0.0000 Cl  0  0  0  0  0  0  0  0  0  0  0  0
    0.3943   -1.2135    0.0000 N   0  0  0  0  0  0  0  0  0  0  0  0
  1  2  1  0
  2  3  1  0
  3  4  2  0
  4  5  1  0
  5  6  2  0
  6  7  1  0
  7  8  1  0
  8  9  1  0
  8 10  2  0
  7 11  2  0
 11 12  1  0
 12 13  1  0
 13 14  2  0
 14 15  1  0
 15 16  2  0
 16 17  1  0
 17 18  1  0
 18 19  1  0
 19 20  1  0
 20 21  1  0
 21 22  1  0
 16 23  1  0
 23 24  2  0
 24 25  1  0
 25 26  1  0
 11 27  1  0
 27 28  2  0
 28 29  1  0
 29 30  1  0
 30 31  2  0
 31 32  1  0
 32 33  2  0
 33 34  1  0
 34 35  2  0
 35 36  1  0
 28 37  1  0
 37  3  1  0
 37  6  1  0
 24 13  1  0
 35 30  1  0
 22 17  1  0
M  END
>  <Compound_ID>  (467) 
CHEMBL3978977

>  <Molecule Name>  (467) 
nan

>  <Molecular Weight>  (467) 
521.03

>  <AlogP>  (467) 
3.19

>  <Smiles>  (467) 
CCc1nnc2c(C(N)=O)c(Nc3ccc(N4CCNCC4)cc3OC)nc(Cc3ccccc3Cl)n12

>  <Standard Type>  (467) 
Ki

>  <Standard Relation>  (467) 
'='

>  <Standard Units>  (467) 
nM

>  <Standard Value>  (467) 
11.0

>  <Assay ChEMBL ID>  (467) 
CHEMBL3887723

>  <Assay Description>  (467) 
Enzyme Inhibition Assay: ALK kinase assays were conducted with the indicated final concentrations unless otherwise specified. In 384 well black plates (Axygen), 8 ul of compound (2% DMSO) was incubated with 8 ul Lck-peptide substrate (0.5 uM, biotin-Ahx-GAEEEIYAAFFA-COOH) and 8 ul of a mixture of ALK (3 nM, Millipore) and ATP (50 uM) in reaction buffer (50 mM Hepes, pH 7.4; 10 mM MgCl2; 2 mM MnCl2; 0.1 mM sodium orthovanadate; 0.01% BSA and 1 mM DTT (added fresh before assay) for 1 h at room temperature. Reactions were then quenched by the addition of 30 ul quench solution (streptavidin-allophycocyanin and Europium-cryptate PT66 monoclonal antibody in 40 mM Hepes, pH 7.4; 480 mM KF; 66 mM EDTA; 0.01% Tween-20; and 0.1% BSA) at room temperature. Plates were read 1 h after quenching on an Envision Multilaber Reader and IC50 values were calculated using a sigmoidal fit of the concentration/inhibition response curves. These values were converted to apparent Ki values.

>  <BAO Format ID>  (467) 
BAO_0000357

>  <BAO Label>  (467) 
single protein format

>  <Assay Organism>  (467) 
Homo sapiens

>  <Target ChEMBL ID>  (467) 
CHEMBL4247

>  <Target Name>  (467) 
ALK tyrosine kinase receptor

>  <Target Organism>  (467) 
Homo sapiens

>  <Target Type>  (467) 
SINGLE PROTEIN

>  <Document ChEMBL ID>  (467) 
CHEMBL3886424

>  <Source Description>  (467) 
BindingDB Database

>  <Document Journal>  (467) 
nan

>  <Document Year>  (467) 
2015.0

>  <Active>  (467) 
1.0

>  <bits>  (467) 
<rdkit.DataStructs.cDataStructs.ExplicitBitVect object at 0x000002422F2306D0>

>  <Group>  (467) 
G2

$$$$

     RDKit          2D

 28 31  0  0  0  0  0  0  0  0999 V2000
    1.3396   -4.9944    0.0000 C   0  0  0  0  0  0  0  0  0  0  0  0
   -0.1568   -5.0991    0.0000 C   0  0  0  0  0  0  0  0  0  0  0  0
    0.2061   -6.5545    0.0000 C   0  0  0  0  0  0  0  0  0  0  0  0
   -1.5271   -5.7092    0.0000 C   0  0  0  0  0  0  0  0  0  0  0  0
   -1.6839   -7.2010    0.0000 C   0  0  0  0  0  0  0  0  0  0  0  0
   -3.0542   -7.8111    0.0000 C   0  0  0  0  0  0  0  0  0  0  0  0
   -3.2110   -9.3029    0.0000 O   0  0  0  0  0  0  0  0  0  0  0  0
   -1.9975  -10.1845    0.0000 C   0  0  0  0  0  0  0  0  0  0  0  0
   -2.1543  -11.6763    0.0000 C   0  0  0  0  0  0  0  0  0  0  0  0
   -3.5246  -12.2864    0.0000 O   0  0  0  0  0  0  0  0  0  0  0  0
   -0.9408  -12.5580    0.0000 C   0  0  0  0  0  0  0  0  0  0  0  0
   -1.0975  -14.0498    0.0000 O   0  0  0  0  0  0  0  0  0  0  0  0
   -4.2677   -6.9294    0.0000 C   0  0  0  0  0  0  0  0  0  0  0  0
   -5.6381   -7.5395    0.0000 O   0  0  0  0  0  0  0  0  0  0  0  0
   -4.1110   -5.4376    0.0000 C   0  0  0  0  0  0  0  0  0  0  0  0
   -2.7406   -4.8275    0.0000 C   0  0  0  0  0  0  0  0  0  0  0  0
   -2.5838   -3.3357    0.0000 C   0  0  0  0  0  0  0  0  0  0  0  0
   -3.7974   -2.4540    0.0000 O   0  0  0  0  0  0  0  0  0  0  0  0
   -1.2135   -2.7256    0.0000 C   0  0  0  0  0  0  0  0  0  0  0  0
   -0.0000   -3.6073    0.0000 C   0  0  0  0  0  0  0  0  0  0  0  0
    1.2135   -2.7256    0.0000 N   0  0  0  0  0  0  0  0  0  0  0  0
    0.7500   -1.2990    0.0000 C   0  0  0  0  0  0  0  0  0  0  0  0
    1.5000    0.0000    0.0000 C   0  0  0  0  0  0  0  0  0  0  0  0
    0.7500    1.2990    0.0000 C   0  0  0  0  0  0  0  0  0  0  0  0
    1.5000    2.5981    0.0000 Cl  0  0  0  0  0  0  0  0  0  0  0  0
   -0.7500    1.2990    0.0000 C   0  0  0  0  0  0  0  0  0  0  0  0
   -1.5000    0.0000    0.0000 C   0  0  0  0  0  0  0  0  0  0  0  0
   -0.7500   -1.2990    0.0000 C   0  0  0  0  0  0  0  0  0  0  0  0
  1  2  1  0
  2  3  1  0
  2  4  1  0
  4  5  2  0
  5  6  1  0
  6  7  1  0
  7  8  1  0
  8  9  1  0
  9 10  1  1
  9 11  1  0
 11 12  1  0
  6 13  2  0
 13 14  1  0
 13 15  1  0
 15 16  2  0
 16 17  1  0
 17 18  2  0
 17 19  1  0
 19 20  2  0
 20 21  1  0
 21 22  1  0
 22 23  2  0
 23 24  1  0
 24 25  1  0
 24 26  2  0
 26 27  1  0
 27 28  2  0
 20  2  1  0
 28 22  1  0
 16  4  1  0
 28 19  1  0
M  END
>  <Compound_ID>  (468) 
CHEMBL4111037

>  <Molecule Name>  (468) 
nan

>  <Molecular Weight>  (468) 
401.85

>  <AlogP>  (468) 
3.13

>  <Smiles>  (468) 
CC1(C)c2cc(OC[C@H](O)CO)c(O)cc2C(=O)c2c1[nH]c1cc(Cl)ccc21

>  <Standard Type>  (468) 
IC50

>  <Standard Relation>  (468) 
'='

>  <Standard Units>  (468) 
nM

>  <Standard Value>  (468) 
40.64

>  <Assay ChEMBL ID>  (468) 
CHEMBL3887074

>  <Assay Description>  (468) 
Inhibition Assay: ALK-inhibiting activity was measured by following an activity of inhibiting phosphorylation by biotinylated peptide (EGPWLEEEEEAYGWMDF). For the detection of phosphorylation of the biotinylated peptide, time-resolved fluorescence measurement was performed using an anti-phosphorylated tyrosine antibody labeled with europium cryptate and streptavidin conjugated to XL665, i.e., an allophycocyanin derivative.

>  <BAO Format ID>  (468) 
BAO_0000357

>  <BAO Label>  (468) 
single protein format

>  <Assay Organism>  (468) 
Homo sapiens

>  <Target ChEMBL ID>  (468) 
CHEMBL4247

>  <Target Name>  (468) 
ALK tyrosine kinase receptor

>  <Target Organism>  (468) 
Homo sapiens

>  <Target Type>  (468) 
SINGLE PROTEIN

>  <Document ChEMBL ID>  (468) 
CHEMBL3886150

>  <Source Description>  (468) 
BindingDB Database

>  <Document Journal>  (468) 
nan

>  <Document Year>  (468) 
2015.0

>  <Active>  (468) 
1.0

>  <bits>  (468) 
<rdkit.DataStructs.cDataStructs.ExplicitBitVect object at 0x000002422F230900>

>  <Group>  (468) 
G2

$$$$

     RDKit          2D

 31 34  0  0  0  0  0  0  0  0999 V2000
    2.6491   -3.5623    0.0000 C   0  0  0  0  0  0  0  0  0  0  0  0
    1.5000   -2.5981    0.0000 C   0  0  0  0  0  0  0  0  0  0  0  0
    2.6491   -1.6339    0.0000 C   0  0  0  0  0  0  0  0  0  0  0  0
    0.7500   -1.2990    0.0000 C   0  0  0  0  0  0  0  0  0  0  0  0
    1.5000    0.0000    0.0000 C   0  0  0  0  0  0  0  0  0  0  0  0
    0.7500    1.2990    0.0000 C   0  0  0  0  0  0  0  0  0  0  0  0
    1.5000    2.5981    0.0000 C   0  0  0  0  0  0  0  0  0  0  0  0
    0.7500    3.8971    0.0000 O   0  0  0  0  0  0  0  0  0  0  0  0
    3.0000    2.5981    0.0000 N   0  0  0  0  0  0  0  0  0  0  0  0
    3.7500    3.8971    0.0000 C   0  0  0  0  0  0  0  0  0  0  0  0
    5.2500    3.8971    0.0000 C   0  0  0  0  0  0  0  0  0  0  0  0
    6.0000    5.1962    0.0000 S   0  0  0  0  0  0  0  0  0  0  0  0
    6.7500    6.4952    0.0000 C   0  0  0  0  0  0  0  0  0  0  0  0
    4.7010    5.9462    0.0000 O   0  0  0  0  0  0  0  0  0  0  0  0
    7.2990    4.4462    0.0000 O   0  0  0  0  0  0  0  0  0  0  0  0
   -0.7500    1.2990    0.0000 C   0  0  0  0  0  0  0  0  0  0  0  0
   -1.5000    0.0000    0.0000 C   0  0  0  0  0  0  0  0  0  0  0  0
   -0.7500   -1.2990    0.0000 C   0  0  0  0  0  0  0  0  0  0  0  0
   -1.5000   -2.5981    0.0000 C   0  0  0  0  0  0  0  0  0  0  0  0
   -3.0000   -2.5981    0.0000 O   0  0  0  0  0  0  0  0  0  0  0  0
   -0.7500   -3.8971    0.0000 C   0  0  0  0  0  0  0  0  0  0  0  0
    0.7500   -3.8971    0.0000 C   0  0  0  0  0  0  0  0  0  0  0  0
    1.2135   -5.3237    0.0000 N   0  0  0  0  0  0  0  0  0  0  0  0
    0.0000   -6.2054    0.0000 C   0  0  0  0  0  0  0  0  0  0  0  0
   -0.1568   -7.6972    0.0000 C   0  0  0  0  0  0  0  0  0  0  0  0
   -1.5271   -8.3073    0.0000 C   0  0  0  0  0  0  0  0  0  0  0  0
   -1.6839   -9.7990    0.0000 C   0  0  0  0  0  0  0  0  0  0  0  0
   -1.8407  -11.2908    0.0000 N   0  0  0  0  0  0  0  0  0  0  0  0
   -2.7406   -7.4256    0.0000 C   0  0  0  0  0  0  0  0  0  0  0  0
   -2.5838   -5.9338    0.0000 C   0  0  0  0  0  0  0  0  0  0  0  0
   -1.2135   -5.3237    0.0000 C   0  0  0  0  0  0  0  0  0  0  0  0
  1  2  1  0
  2  3  1  0
  2  4  1  0
  4  5  2  0
  5  6  1  0
  6  7  1  0
  7  8  2  0
  7  9  1  0
  9 10  1  0
 10 11  1  0
 11 12  1  0
 12 13  1  0
 12 14  2  0
 12 15  2  0
  6 16  2  0
 16 17  1  0
 17 18  2  0
 18 19  1  0
 19 20  2  0
 19 21  1  0
 21 22  2  0
 22 23  1  0
 23 24  1  0
 24 25  2  0
 25 26  1  0
 26 27  1  0
 27 28  3  0
 26 29  2  0
 29 30  1  0
 30 31  2  0
 22  2  1  0
 31 24  1  0
 18  4  1  0
 31 21  1  0
M  END
>  <Compound_ID>  (469) 
CHEMBL3910490

>  <Molecule Name>  (469) 
nan

>  <Molecular Weight>  (469) 
435.51

>  <AlogP>  (469) 
2.68

>  <Smiles>  (469) 
CC1(C)c2cc(C(=O)NCCS(C)(=O)=O)ccc2C(=O)c2c1[nH]c1cc(C#N)ccc21

>  <Standard Type>  (469) 
IC50

>  <Standard Relation>  (469) 
'='

>  <Standard Units>  (469) 
nM

>  <Standard Value>  (469) 
10.37

>  <Assay ChEMBL ID>  (469) 
CHEMBL3887074

>  <Assay Description>  (469) 
Inhibition Assay: ALK-inhibiting activity was measured by following an activity of inhibiting phosphorylation by biotinylated peptide (EGPWLEEEEEAYGWMDF). For the detection of phosphorylation of the biotinylated peptide, time-resolved fluorescence measurement was performed using an anti-phosphorylated tyrosine antibody labeled with europium cryptate and streptavidin conjugated to XL665, i.e., an allophycocyanin derivative.

>  <BAO Format ID>  (469) 
BAO_0000357

>  <BAO Label>  (469) 
single protein format

>  <Assay Organism>  (469) 
Homo sapiens

>  <Target ChEMBL ID>  (469) 
CHEMBL4247

>  <Target Name>  (469) 
ALK tyrosine kinase receptor

>  <Target Organism>  (469) 
Homo sapiens

>  <Target Type>  (469) 
SINGLE PROTEIN

>  <Document ChEMBL ID>  (469) 
CHEMBL3886150

>  <Source Description>  (469) 
BindingDB Database

>  <Document Journal>  (469) 
nan

>  <Document Year>  (469) 
2015.0

>  <Active>  (469) 
1.0

>  <bits>  (469) 
<rdkit.DataStructs.cDataStructs.ExplicitBitVect object at 0x000002422F230BA0>

>  <Group>  (469) 
G2

$$$$

     RDKit          2D

 42 46  0  0  0  0  0  0  0  0999 V2000
   -6.2940    7.2357    0.0000 C   0  0  0  0  0  0  0  0  0  0  0  0
   -5.1793    6.2320    0.0000 O   0  0  0  0  0  0  0  0  0  0  0  0
   -3.7527    6.6955    0.0000 C   0  0  0  0  0  0  0  0  0  0  0  0
   -3.4408    8.1628    0.0000 C   0  0  0  0  0  0  0  0  0  0  0  0
   -2.0143    8.6263    0.0000 C   0  0  0  0  0  0  0  0  0  0  0  0
   -1.7024   10.0935    0.0000 C   0  0  0  0  0  0  0  0  0  0  0  0
   -2.8171   11.0972    0.0000 O   0  0  0  0  0  0  0  0  0  0  0  0
   -0.2758   10.5570    0.0000 N   0  0  0  0  0  0  0  0  0  0  0  0
    0.0361   12.0242    0.0000 C   0  0  0  0  0  0  0  0  0  0  0  0
    1.4627   12.4878    0.0000 C   0  0  0  0  0  0  0  0  0  0  0  0
    1.7745   13.9550    0.0000 N   0  0  0  0  0  0  0  0  0  0  0  0
    3.2011   14.4185    0.0000 C   0  0  0  0  0  0  0  0  0  0  0  0
    3.5130   15.8857    0.0000 C   0  0  0  0  0  0  0  0  0  0  0  0
    2.3983   16.8894    0.0000 N   0  0  0  0  0  0  0  0  0  0  0  0
    2.7101   18.3567    0.0000 C   0  0  0  0  0  0  0  0  0  0  0  0
    0.9717   16.4259    0.0000 C   0  0  0  0  0  0  0  0  0  0  0  0
    0.6598   14.9587    0.0000 C   0  0  0  0  0  0  0  0  0  0  0  0
   -0.8995    7.6226    0.0000 C   0  0  0  0  0  0  0  0  0  0  0  0
   -1.2114    6.1554    0.0000 C   0  0  0  0  0  0  0  0  0  0  0  0
   -2.6380    5.6918    0.0000 C   0  0  0  0  0  0  0  0  0  0  0  0
   -2.9499    4.2246    0.0000 N   0  0  0  0  0  0  0  0  0  0  0  0
   -1.8351    3.2209    0.0000 C   0  0  0  0  0  0  0  0  0  0  0  0
   -0.4086    3.6844    0.0000 N   0  0  0  0  0  0  0  0  0  0  0  0
    0.7062    2.6807    0.0000 C   0  0  0  0  0  0  0  0  0  0  0  0
    2.1328    3.1443    0.0000 C   0  0  0  0  0  0  0  0  0  0  0  0
    2.4446    4.6115    0.0000 C   0  0  0  0  0  0  0  0  0  0  0  0
    3.8712    5.0750    0.0000 C   0  0  0  0  0  0  0  0  0  0  0  0
    4.9859    4.0713    0.0000 Cl  0  0  0  0  0  0  0  0  0  0  0  0
    4.1831    6.5422    0.0000 C   0  0  0  0  0  0  0  0  0  0  0  0
    3.0684    7.5459    0.0000 C   0  0  0  0  0  0  0  0  0  0  0  0
    1.6418    7.0824    0.0000 C   0  0  0  0  0  0  0  0  0  0  0  0
    1.3299    5.6152    0.0000 C   0  0  0  0  0  0  0  0  0  0  0  0
   -0.0967    5.1517    0.0000 Cl  0  0  0  0  0  0  0  0  0  0  0  0
    0.3943    1.2135    0.0000 N   0  0  0  0  0  0  0  0  0  0  0  0
    1.2760    0.0000    0.0000 C   0  0  0  0  0  0  0  0  0  0  0  0
    0.3943   -1.2135    0.0000 C   0  0  0  0  0  0  0  0  0  0  0  0
   -1.0323   -0.7500    0.0000 N   0  0  0  0  0  0  0  0  0  0  0  0
   -1.0323    0.7500    0.0000 C   0  0  0  0  0  0  0  0  0  0  0  0
   -2.1470    1.7537    0.0000 C   0  0  0  0  0  0  0  0  0  0  0  0
   -3.5736    1.2902    0.0000 C   0  0  0  0  0  0  0  0  0  0  0  0
   -4.6883    2.2939    0.0000 N   0  0  0  0  0  0  0  0  0  0  0  0
   -3.8855   -0.1771    0.0000 O   0  0  0  0  0  0  0  0  0  0  0  0
  1  2  1  0
  2  3  1  0
  3  4  2  0
  4  5  1  0
  5  6  1  0
  6  7  2  0
  6  8  1  0
  8  9  1  0
  9 10  1  0
 10 11  1  0
 11 12  1  0
 12 13  1  0
 13 14  1  0
 14 15  1  0
 14 16  1  0
 16 17  1  0
  5 18  2  0
 18 19  1  0
 19 20  2  0
 20 21  1  0
 21 22  1  0
 22 23  1  0
 23 24  2  0
 24 25  1  0
 25 26  1  0
 26 27  2  0
 27 28  1  0
 27 29  1  0
 29 30  2  0
 30 31  1  0
 31 32  2  0
 32 33  1  0
 24 34  1  0
 34 35  1  0
 35 36  2  0
 36 37  1  0
 37 38  2  0
 38 39  1  0
 39 40  1  0
 40 41  1  0
 40 42  2  0
 20  3  1  0
 39 22  2  0
 17 11  1  0
 32 26  1  0
 38 34  1  0
M  END
>  <Compound_ID>  (470) 
CHEMBL3900693

>  <Molecule Name>  (470) 
nan

>  <Molecular Weight>  (470) 
611.53

>  <AlogP>  (470) 
3.46

>  <Smiles>  (470) 
COc1cc(C(=O)NCCN2CCN(C)CC2)ccc1Nc1nc(Cc2c(Cl)cccc2Cl)n2ccnc2c1C(N)=O

>  <Standard Type>  (470) 
Ki

>  <Standard Relation>  (470) 
'='

>  <Standard Units>  (470) 
nM

>  <Standard Value>  (470) 
7.0

>  <Assay ChEMBL ID>  (470) 
CHEMBL3887723

>  <Assay Description>  (470) 
Enzyme Inhibition Assay: ALK kinase assays were conducted with the indicated final concentrations unless otherwise specified. In 384 well black plates (Axygen), 8 ul of compound (2% DMSO) was incubated with 8 ul Lck-peptide substrate (0.5 uM, biotin-Ahx-GAEEEIYAAFFA-COOH) and 8 ul of a mixture of ALK (3 nM, Millipore) and ATP (50 uM) in reaction buffer (50 mM Hepes, pH 7.4; 10 mM MgCl2; 2 mM MnCl2; 0.1 mM sodium orthovanadate; 0.01% BSA and 1 mM DTT (added fresh before assay) for 1 h at room temperature. Reactions were then quenched by the addition of 30 ul quench solution (streptavidin-allophycocyanin and Europium-cryptate PT66 monoclonal antibody in 40 mM Hepes, pH 7.4; 480 mM KF; 66 mM EDTA; 0.01% Tween-20; and 0.1% BSA) at room temperature. Plates were read 1 h after quenching on an Envision Multilaber Reader and IC50 values were calculated using a sigmoidal fit of the concentration/inhibition response curves. These values were converted to apparent Ki values.

>  <BAO Format ID>  (470) 
BAO_0000357

>  <BAO Label>  (470) 
single protein format

>  <Assay Organism>  (470) 
Homo sapiens

>  <Target ChEMBL ID>  (470) 
CHEMBL4247

>  <Target Name>  (470) 
ALK tyrosine kinase receptor

>  <Target Organism>  (470) 
Homo sapiens

>  <Target Type>  (470) 
SINGLE PROTEIN

>  <Document ChEMBL ID>  (470) 
CHEMBL3886424

>  <Source Description>  (470) 
BindingDB Database

>  <Document Journal>  (470) 
nan

>  <Document Year>  (470) 
2015.0

>  <Active>  (470) 
1.0

>  <bits>  (470) 
<rdkit.DataStructs.cDataStructs.ExplicitBitVect object at 0x000002422F230E40>

>  <Group>  (470) 
G2

$$$$

     RDKit          2D

 31 35  0  0  0  0  0  0  0  0999 V2000
    3.0000   -7.7942    0.0000 C   0  0  0  0  0  0  0  0  0  0  0  0
    3.7500   -6.4952    0.0000 C   0  0  0  0  0  0  0  0  0  0  0  0
    5.2500   -6.4952    0.0000 C   0  0  0  0  0  0  0  0  0  0  0  0
    3.0000   -5.1962    0.0000 N   0  0  0  0  0  0  0  0  0  0  0  0
    1.5000   -5.1962    0.0000 C   0  0  0  0  0  0  0  0  0  0  0  0
    0.7500   -3.8971    0.0000 C   0  0  0  0  0  0  0  0  0  0  0  0
    1.5000   -2.5981    0.0000 N   0  0  0  0  0  0  0  0  0  0  0  0
    0.7500   -1.2990    0.0000 C   0  0  0  0  0  0  0  0  0  0  0  0
    1.5000    0.0000    0.0000 C   0  0  0  0  0  0  0  0  0  0  0  0
    0.7500    1.2990    0.0000 C   0  0  0  0  0  0  0  0  0  0  0  0
   -0.7500    1.2990    0.0000 C   0  0  0  0  0  0  0  0  0  0  0  0
   -1.5000    0.0000    0.0000 C   0  0  0  0  0  0  0  0  0  0  0  0
   -0.7500   -1.2990    0.0000 C   0  0  0  0  0  0  0  0  0  0  0  0
   -3.0000    0.0000    0.0000 C   0  0  0  0  0  0  0  0  0  0  0  0
   -3.7500   -1.2990    0.0000 O   0  0  0  0  0  0  0  0  0  0  0  0
   -3.7500    1.2990    0.0000 C   0  0  0  0  0  0  0  0  0  0  0  0
   -3.0000    2.5981    0.0000 C   0  0  0  0  0  0  0  0  0  0  0  0
   -4.0037    3.7128    0.0000 N   0  0  0  0  0  0  0  0  0  0  0  0
   -5.3740    3.1027    0.0000 C   0  0  0  0  0  0  0  0  0  0  0  0
   -6.7443    3.7128    0.0000 C   0  0  0  0  0  0  0  0  0  0  0  0
   -7.9579    2.8311    0.0000 C   0  0  0  0  0  0  0  0  0  0  0  0
   -9.3282    3.4412    0.0000 C   0  0  0  0  0  0  0  0  0  0  0  0
  -10.6985    4.0513    0.0000 N   0  0  0  0  0  0  0  0  0  0  0  0
   -7.8011    1.3393    0.0000 C   0  0  0  0  0  0  0  0  0  0  0  0
   -6.4307    0.7292    0.0000 C   0  0  0  0  0  0  0  0  0  0  0  0
   -5.2172    1.6109    0.0000 C   0  0  0  0  0  0  0  0  0  0  0  0
   -1.5000    2.5981    0.0000 C   0  0  0  0  0  0  0  0  0  0  0  0
   -0.0905    3.1111    0.0000 C   0  0  0  0  0  0  0  0  0  0  0  0
   -1.7605    4.0753    0.0000 C   0  0  0  0  0  0  0  0  0  0  0  0
    3.0000   -2.5981    0.0000 C   0  0  0  0  0  0  0  0  0  0  0  0
    3.7500   -3.8971    0.0000 C   0  0  0  0  0  0  0  0  0  0  0  0
  1  2  1  0
  2  3  1  0
  2  4  1  0
  4  5  1  0
  5  6  1  0
  6  7  1  0
  7  8  1  0
  8  9  2  0
  9 10  1  0
 10 11  2  0
 11 12  1  0
 12 13  2  0
 12 14  1  0
 14 15  2  0
 14 16  1  0
 16 17  2  0
 17 18  1  0
 18 19  1  0
 19 20  2  0
 20 21  1  0
 21 22  1  0
 22 23  3  0
 21 24  2  0
 24 25  1  0
 25 26  2  0
 17 27  1  0
 27 28  1  0
 27 29  1  0
  7 30  1  0
 30 31  1  0
 31  4  1  0
 13  8  1  0
 26 16  1  0
 27 11  1  0
 26 19  1  0
M  END
>  <Compound_ID>  (471) 
CHEMBL3945766

>  <Molecule Name>  (471) 
nan

>  <Molecular Weight>  (471) 
412.54

>  <AlogP>  (471) 
4.44

>  <Smiles>  (471) 
CC(C)N1CCN(c2ccc3c(c2)C(=O)c2c([nH]c4cc(C#N)ccc24)C3(C)C)CC1

>  <Standard Type>  (471) 
IC50

>  <Standard Relation>  (471) 
'='

>  <Standard Units>  (471) 
nM

>  <Standard Value>  (471) 
4.631

>  <Assay ChEMBL ID>  (471) 
CHEMBL3887074

>  <Assay Description>  (471) 
Inhibition Assay: ALK-inhibiting activity was measured by following an activity of inhibiting phosphorylation by biotinylated peptide (EGPWLEEEEEAYGWMDF). For the detection of phosphorylation of the biotinylated peptide, time-resolved fluorescence measurement was performed using an anti-phosphorylated tyrosine antibody labeled with europium cryptate and streptavidin conjugated to XL665, i.e., an allophycocyanin derivative.

>  <BAO Format ID>  (471) 
BAO_0000357

>  <BAO Label>  (471) 
single protein format

>  <Assay Organism>  (471) 
Homo sapiens

>  <Target ChEMBL ID>  (471) 
CHEMBL4247

>  <Target Name>  (471) 
ALK tyrosine kinase receptor

>  <Target Organism>  (471) 
Homo sapiens

>  <Target Type>  (471) 
SINGLE PROTEIN

>  <Document ChEMBL ID>  (471) 
CHEMBL3886150

>  <Source Description>  (471) 
BindingDB Database

>  <Document Journal>  (471) 
nan

>  <Document Year>  (471) 
2015.0

>  <Active>  (471) 
1.0

>  <bits>  (471) 
<rdkit.DataStructs.cDataStructs.ExplicitBitVect object at 0x000002422F231B60>

>  <Group>  (471) 
G2

$$$$

     RDKit          2D

 47 51  0  0  0  0  0  0  0  0999 V2000
    0.5271    8.0861    0.0000 C   0  0  0  0  0  0  0  0  0  0  0  0
   -0.8995    7.6226    0.0000 C   0  0  0  0  0  0  0  0  0  0  0  0
   -1.2114    6.1554    0.0000 C   0  0  0  0  0  0  0  0  0  0  0  0
   -2.6380    5.6918    0.0000 C   0  0  0  0  0  0  0  0  0  0  0  0
   -2.9499    4.2246    0.0000 N   0  0  0  0  0  0  0  0  0  0  0  0
   -1.8351    3.2209    0.0000 C   0  0  0  0  0  0  0  0  0  0  0  0
   -0.4086    3.6844    0.0000 N   0  0  0  0  0  0  0  0  0  0  0  0
    0.7062    2.6807    0.0000 C   0  0  0  0  0  0  0  0  0  0  0  0
    2.1328    3.1443    0.0000 N   0  0  0  0  0  0  0  0  0  0  0  0
    2.4446    4.6115    0.0000 C   0  0  0  0  0  0  0  0  0  0  0  0
    1.3299    5.6152    0.0000 C   0  0  0  0  0  0  0  0  0  0  0  0
    1.6418    7.0824    0.0000 C   0  0  0  0  0  0  0  0  0  0  0  0
    3.0684    7.5459    0.0000 C   0  0  0  0  0  0  0  0  0  0  0  0
    4.1831    6.5422    0.0000 C   0  0  0  0  0  0  0  0  0  0  0  0
    3.8712    5.0750    0.0000 C   0  0  0  0  0  0  0  0  0  0  0  0
    4.9859    4.0713    0.0000 S   0  0  0  0  0  0  0  0  0  0  0  0
    3.9822    2.9566    0.0000 O   0  0  0  0  0  0  0  0  0  0  0  0
    5.9896    5.1860    0.0000 O   0  0  0  0  0  0  0  0  0  0  0  0
    6.1006    3.0676    0.0000 C   0  0  0  0  0  0  0  0  0  0  0  0
    5.7888    1.6004    0.0000 C   0  0  0  0  0  0  0  0  0  0  0  0
    7.5272    3.5312    0.0000 C   0  0  0  0  0  0  0  0  0  0  0  0
    0.3943    1.2135    0.0000 C   0  0  0  0  0  0  0  0  0  0  0  0
    1.2760    0.0000    0.0000 C   0  0  0  0  0  0  0  0  0  0  0  0
    0.3943   -1.2135    0.0000 N   0  0  0  0  0  0  0  0  0  0  0  0
   -1.0323   -0.7500    0.0000 N   0  0  0  0  0  0  0  0  0  0  0  0
   -1.0323    0.7500    0.0000 C   0  0  0  0  0  0  0  0  0  0  0  0
   -2.1470    1.7537    0.0000 N   0  0  0  0  0  0  0  0  0  0  0  0
   -3.7527    6.6955    0.0000 C   0  0  0  0  0  0  0  0  0  0  0  0
   -5.1793    6.2320    0.0000 O   0  0  0  0  0  0  0  0  0  0  0  0
   -6.2940    7.2357    0.0000 C   0  0  0  0  0  0  0  0  0  0  0  0
   -7.7206    6.7722    0.0000 C   0  0  0  0  0  0  0  0  0  0  0  0
   -5.9821    8.7029    0.0000 C   0  0  0  0  0  0  0  0  0  0  0  0
   -3.4408    8.1628    0.0000 C   0  0  0  0  0  0  0  0  0  0  0  0
   -2.0143    8.6263    0.0000 C   0  0  0  0  0  0  0  0  0  0  0  0
   -1.7024   10.0935    0.0000 C   0  0  0  0  0  0  0  0  0  0  0  0
   -0.2758   10.5570    0.0000 C   0  0  0  0  0  0  0  0  0  0  0  0
    0.0361   12.0242    0.0000 C   0  0  0  0  0  0  0  0  0  0  0  0
   -1.0786   13.0279    0.0000 N   0  0  0  0  0  0  0  0  0  0  0  0
   -0.7668   14.4952    0.0000 C   0  0  0  0  0  0  0  0  0  0  0  0
    0.6598   14.9587    0.0000 C   0  0  0  0  0  0  0  0  0  0  0  0
    1.7745   13.9550    0.0000 O   0  0  0  0  0  0  0  0  0  0  0  0
    0.9717   16.4259    0.0000 C   0  0  0  0  0  0  0  0  0  0  0  0
    1.2835   17.8931    0.0000 F   0  0  0  0  0  0  0  0  0  0  0  0
    2.4389   16.1140    0.0000 F   0  0  0  0  0  0  0  0  0  0  0  0
   -0.4955   16.7378    0.0000 F   0  0  0  0  0  0  0  0  0  0  0  0
   -2.5052   12.5644    0.0000 C   0  0  0  0  0  0  0  0  0  0  0  0
   -2.8171   11.0972    0.0000 C   0  0  0  0  0  0  0  0  0  0  0  0
  1  2  1  0
  2  3  2  0
  3  4  1  0
  4  5  1  0
  5  6  1  0
  6  7  1  0
  7  8  2  0
  8  9  1  0
  9 10  1  0
 10 11  2  0
 11 12  1  0
 12 13  2  0
 13 14  1  0
 14 15  2  0
 15 16  1  0
 16 17  2  0
 16 18  2  0
 16 19  1  0
 19 20  1  0
 19 21  1  0
  8 22  1  0
 22 23  2  0
 23 24  1  0
 24 25  1  0
 25 26  2  0
 26 27  1  0
  4 28  2  0
 28 29  1  0
 29 30  1  0
 30 31  1  0
 30 32  1  0
 28 33  1  0
 33 34  2  0
 34 35  1  0
 35 36  1  0
 36 37  1  0
 37 38  1  0
 38 39  1  0
 39 40  1  0
 40 41  1  6
 40 42  1  0
 42 43  1  0
 42 44  1  0
 42 45  1  0
 38 46  1  0
 46 47  1  0
 34  2  1  0
 47 35  1  0
 27  6  2  0
 15 10  1  0
 26 22  1  0
M  END
>  <Compound_ID>  (472) 
CHEMBL3651845

>  <Molecule Name>  (472) 
nan

>  <Molecular Weight>  (472) 
675.78

>  <AlogP>  (472) 
6.22

>  <Smiles>  (472) 
Cc1cc(Nc2nc(Nc3ccccc3S(=O)(=O)C(C)C)c3c[nH]nc3n2)c(OC(C)C)cc1C1CCN(C[C@@H](O)C(F)(F)F)CC1

>  <Standard Type>  (472) 
IC50

>  <Standard Relation>  (472) 
'='

>  <Standard Units>  (472) 
nM

>  <Standard Value>  (472) 
29.0

>  <Assay ChEMBL ID>  (472) 
CHEMBL3705165

>  <Assay Description>  (472) 
Enzyme Assay: The inhibition of ALK tyrosine kinase activity may be demonstrated using known methods, for example using the recombinant kinase domain of the ALK in analogy to the VEGF-R kinase assay described in J. Wood et al. Cancer Res. 60, 2178-2189 (2000).

>  <BAO Format ID>  (472) 
BAO_0000357

>  <BAO Label>  (472) 
single protein format

>  <Assay Organism>  (472) 
Homo sapiens

>  <Target ChEMBL ID>  (472) 
CHEMBL4247

>  <Target Name>  (472) 
ALK tyrosine kinase receptor

>  <Target Organism>  (472) 
Homo sapiens

>  <Target Type>  (472) 
SINGLE PROTEIN

>  <Document ChEMBL ID>  (472) 
CHEMBL3638924

>  <Source Description>  (472) 
BindingDB Database

>  <Document Journal>  (472) 
nan

>  <Document Year>  (472) 
2013.0

>  <Active>  (472) 
1.0

>  <bits>  (472) 
<rdkit.DataStructs.cDataStructs.ExplicitBitVect object at 0x000002422F231D90>

>  <Group>  (472) 
G2

$$$$

     RDKit          2D

 41 45  0  0  0  0  0  0  0  0999 V2000
    0.5271    8.0861    0.0000 C   0  0  0  0  0  0  0  0  0  0  0  0
   -0.8995    7.6226    0.0000 C   0  0  0  0  0  0  0  0  0  0  0  0
   -1.2114    6.1554    0.0000 C   0  0  0  0  0  0  0  0  0  0  0  0
   -2.6380    5.6918    0.0000 C   0  0  0  0  0  0  0  0  0  0  0  0
   -2.9499    4.2246    0.0000 N   0  0  0  0  0  0  0  0  0  0  0  0
   -1.8351    3.2209    0.0000 C   0  0  0  0  0  0  0  0  0  0  0  0
   -0.4086    3.6844    0.0000 C   0  0  0  0  0  0  0  0  0  0  0  0
    0.7062    2.6807    0.0000 C   0  0  0  0  0  0  0  0  0  0  0  0
    2.1328    3.1443    0.0000 N   0  0  0  0  0  0  0  0  0  0  0  0
    2.4446    4.6115    0.0000 C   0  0  0  0  0  0  0  0  0  0  0  0
    1.3299    5.6152    0.0000 C   0  0  0  0  0  0  0  0  0  0  0  0
    1.6418    7.0824    0.0000 C   0  0  0  0  0  0  0  0  0  0  0  0
    3.0684    7.5459    0.0000 C   0  0  0  0  0  0  0  0  0  0  0  0
    4.1831    6.5422    0.0000 C   0  0  0  0  0  0  0  0  0  0  0  0
    3.8712    5.0750    0.0000 C   0  0  0  0  0  0  0  0  0  0  0  0
    4.9859    4.0713    0.0000 S   0  0  0  0  0  0  0  0  0  0  0  0
    3.9822    2.9566    0.0000 O   0  0  0  0  0  0  0  0  0  0  0  0
    5.9896    5.1860    0.0000 O   0  0  0  0  0  0  0  0  0  0  0  0
    6.1006    3.0676    0.0000 C   0  0  0  0  0  0  0  0  0  0  0  0
    5.7888    1.6004    0.0000 C   0  0  0  0  0  0  0  0  0  0  0  0
    7.5272    3.5312    0.0000 C   0  0  0  0  0  0  0  0  0  0  0  0
    0.3943    1.2135    0.0000 C   0  0  0  0  0  0  0  0  0  0  0  0
    1.2760    0.0000    0.0000 C   0  0  0  0  0  0  0  0  0  0  0  0
    2.7760    0.0000    0.0000 C   0  0  0  0  0  0  0  0  0  0  0  0
    0.3943   -1.2135    0.0000 N   0  0  0  0  0  0  0  0  0  0  0  0
   -1.0323   -0.7500    0.0000 N   0  0  0  0  0  0  0  0  0  0  0  0
   -1.0323    0.7500    0.0000 C   0  0  0  0  0  0  0  0  0  0  0  0
   -2.1470    1.7537    0.0000 C   0  0  0  0  0  0  0  0  0  0  0  0
   -3.7527    6.6955    0.0000 C   0  0  0  0  0  0  0  0  0  0  0  0
   -5.1793    6.2320    0.0000 O   0  0  0  0  0  0  0  0  0  0  0  0
   -6.2940    7.2357    0.0000 C   0  0  0  0  0  0  0  0  0  0  0  0
   -7.7206    6.7722    0.0000 C   0  0  0  0  0  0  0  0  0  0  0  0
   -5.9821    8.7029    0.0000 C   0  0  0  0  0  0  0  0  0  0  0  0
   -3.4408    8.1628    0.0000 C   0  0  0  0  0  0  0  0  0  0  0  0
   -2.0143    8.6263    0.0000 C   0  0  0  0  0  0  0  0  0  0  0  0
   -1.7024   10.0935    0.0000 C   0  0  0  0  0  0  0  0  0  0  0  0
   -0.2758   10.5570    0.0000 C   0  0  0  0  0  0  0  0  0  0  0  0
    0.0361   12.0242    0.0000 C   0  0  0  0  0  0  0  0  0  0  0  0
   -1.0786   13.0279    0.0000 N   0  0  0  0  0  0  0  0  0  0  0  0
   -2.5052   12.5644    0.0000 C   0  0  0  0  0  0  0  0  0  0  0  0
   -2.8171   11.0972    0.0000 C   0  0  0  0  0  0  0  0  0  0  0  0
  1  2  1  0
  2  3  2  0
  3  4  1  0
  4  5  1  0
  5  6  1  0
  6  7  2  0
  7  8  1  0
  8  9  1  0
  9 10  1  0
 10 11  2  0
 11 12  1  0
 12 13  2  0
 13 14  1  0
 14 15  2  0
 15 16  1  0
 16 17  2  0
 16 18  2  0
 16 19  1  0
 19 20  1  0
 19 21  1  0
  8 22  2  0
 22 23  1  0
 23 24  1  0
 23 25  2  0
 25 26  1  0
 26 27  1  0
 27 28  2  0
  4 29  2  0
 29 30  1  0
 30 31  1  0
 31 32  1  0
 31 33  1  0
 29 34  1  0
 34 35  2  0
 35 36  1  0
 36 37  1  0
 37 38  1  0
 38 39  1  0
 39 40  1  0
 40 41  1  0
 35  2  1  0
 41 36  1  0
 28  6  1  0
 15 10  1  0
 27 22  1  0
M  END
>  <Compound_ID>  (473) 
CHEMBL3651853

>  <Molecule Name>  (473) 
nan

>  <Molecular Weight>  (473) 
575.78

>  <AlogP>  (473) 
7.10

>  <Smiles>  (473) 
Cc1cc(Nc2cc(Nc3ccccc3S(=O)(=O)C(C)C)c3c(C)n[nH]c3c2)c(OC(C)C)cc1C1CCNCC1

>  <Standard Type>  (473) 
IC50

>  <Standard Relation>  (473) 
'='

>  <Standard Units>  (473) 
nM

>  <Standard Value>  (473) 
38.0

>  <Assay ChEMBL ID>  (473) 
CHEMBL3705165

>  <Assay Description>  (473) 
Enzyme Assay: The inhibition of ALK tyrosine kinase activity may be demonstrated using known methods, for example using the recombinant kinase domain of the ALK in analogy to the VEGF-R kinase assay described in J. Wood et al. Cancer Res. 60, 2178-2189 (2000).

>  <BAO Format ID>  (473) 
BAO_0000357

>  <BAO Label>  (473) 
single protein format

>  <Assay Organism>  (473) 
Homo sapiens

>  <Target ChEMBL ID>  (473) 
CHEMBL4247

>  <Target Name>  (473) 
ALK tyrosine kinase receptor

>  <Target Organism>  (473) 
Homo sapiens

>  <Target Type>  (473) 
SINGLE PROTEIN

>  <Document ChEMBL ID>  (473) 
CHEMBL3638924

>  <Source Description>  (473) 
BindingDB Database

>  <Document Journal>  (473) 
nan

>  <Document Year>  (473) 
2013.0

>  <Active>  (473) 
1.0

>  <bits>  (473) 
<rdkit.DataStructs.cDataStructs.ExplicitBitVect object at 0x000002422F232420>

>  <Group>  (473) 
G2

$$$$

     RDKit          2D

 39 43  0  0  0  0  0  0  0  0999 V2000
   -2.4240   -6.1312    0.0000 C   0  0  0  0  0  0  0  0  0  0  0  0
   -1.0537   -5.5211    0.0000 C   0  0  0  0  0  0  0  0  0  0  0  0
   -0.7418   -4.0539    0.0000 N   0  0  0  0  0  0  0  0  0  0  0  0
    0.7500   -3.8971    0.0000 C   0  0  0  0  0  0  0  0  0  0  0  0
    1.5000   -2.5981    0.0000 N   0  0  0  0  0  0  0  0  0  0  0  0
    0.7500   -1.2990    0.0000 C   0  0  0  0  0  0  0  0  0  0  0  0
    1.5000    0.0000    0.0000 N   0  0  0  0  0  0  0  0  0  0  0  0
    0.7500    1.2990    0.0000 C   0  0  0  0  0  0  0  0  0  0  0  0
    1.5000    2.5981    0.0000 N   0  0  0  0  0  0  0  0  0  0  0  0
    3.0000    2.5981    0.0000 C   0  0  0  0  0  0  0  0  0  0  0  0
    3.7500    1.2990    0.0000 C   0  0  0  0  0  0  0  0  0  0  0  0
    5.2500    1.2990    0.0000 C   0  0  0  0  0  0  0  0  0  0  0  0
    6.0000   -0.0000    0.0000 C   0  0  0  0  0  0  0  0  0  0  0  0
    6.0000    2.5981    0.0000 C   0  0  0  0  0  0  0  0  0  0  0  0
    7.5000    2.5981    0.0000 C   0  0  0  0  0  0  0  0  0  0  0  0
    8.2500    1.2990    0.0000 C   0  0  0  0  0  0  0  0  0  0  0  0
    9.7500    1.2990    0.0000 C   0  0  0  0  0  0  0  0  0  0  0  0
   10.5000    2.5981    0.0000 N   0  0  0  0  0  0  0  0  0  0  0  0
   12.0000    2.5981    0.0000 C   0  0  0  0  0  0  0  0  0  0  0  0
    9.7500    3.8971    0.0000 C   0  0  0  0  0  0  0  0  0  0  0  0
    8.2500    3.8971    0.0000 C   0  0  0  0  0  0  0  0  0  0  0  0
    5.2500    3.8971    0.0000 C   0  0  0  0  0  0  0  0  0  0  0  0
    3.7500    3.8971    0.0000 C   0  0  0  0  0  0  0  0  0  0  0  0
    3.0000    5.1962    0.0000 O   0  0  0  0  0  0  0  0  0  0  0  0
    3.7500    6.4952    0.0000 C   0  0  0  0  0  0  0  0  0  0  0  0
    3.7500    7.9952    0.0000 C   0  0  0  0  0  0  0  0  0  0  0  0
    5.0490    7.2452    0.0000 C   0  0  0  0  0  0  0  0  0  0  0  0
   -0.7500    1.2990    0.0000 N   0  0  0  0  0  0  0  0  0  0  0  0
   -1.5000    0.0000    0.0000 C   0  0  0  0  0  0  0  0  0  0  0  0
   -0.7500   -1.2990    0.0000 C   0  0  0  0  0  0  0  0  0  0  0  0
   -1.5000   -2.5981    0.0000 Cl  0  0  0  0  0  0  0  0  0  0  0  0
    1.3601   -5.2674    0.0000 C   0  0  0  0  0  0  0  0  0  0  0  0
    2.8273   -5.5793    0.0000 S   0  0  0  0  0  0  0  0  0  0  0  0
    3.1392   -4.1121    0.0000 O   0  0  0  0  0  0  0  0  0  0  0  0
    2.5155   -7.0465    0.0000 O   0  0  0  0  0  0  0  0  0  0  0  0
    4.2945   -5.8912    0.0000 C   0  0  0  0  0  0  0  0  0  0  0  0
    4.7581   -7.3178    0.0000 C   0  0  0  0  0  0  0  0  0  0  0  0
    5.2982   -4.7765    0.0000 C   0  0  0  0  0  0  0  0  0  0  0  0
    0.2454   -6.2711    0.0000 S   0  0  0  0  0  0  0  0  0  0  0  0
  1  2  1  0
  2  3  2  0
  3  4  1  0
  4  5  1  0
  5  6  1  0
  6  7  2  0
  7  8  1  0
  8  9  1  0
  9 10  1  0
 10 11  2  0
 11 12  1  0
 12 13  1  0
 12 14  2  0
 14 15  1  0
 15 16  1  0
 16 17  1  0
 17 18  1  0
 18 19  1  0
 18 20  1  0
 20 21  1  0
 14 22  1  0
 22 23  2  0
 23 24  1  0
 24 25  1  0
 25 26  1  0
 26 27  1  0
  8 28  2  0
 28 29  1  0
 29 30  2  0
 30 31  1  0
  4 32  2  0
 32 33  1  0
 33 34  2  0
 33 35  2  0
 33 36  1  0
 36 37  1  0
 36 38  1  0
 32 39  1  0
 39  2  1  0
 30  6  1  0
 23 10  1  0
 27 25  1  0
 21 15  1  0
M  END
>  <Compound_ID>  (474) 
CHEMBL3786916

>  <Molecule Name>  (474) 
nan

>  <Molecular Weight>  (474) 
591.2

>  <AlogP>  (474) 
6.22

>  <Smiles>  (474) 
Cc1nc(Nc2nc(Nc3cc(C)c(C4CCN(C)CC4)cc3OC3CC3)ncc2Cl)c(S(=O)(=O)C(C)C)s1

>  <Standard Type>  (474) 
IC50

>  <Standard Relation>  (474) 
'='

>  <Standard Units>  (474) 
nM

>  <Standard Value>  (474) 
3.0

>  <Assay ChEMBL ID>  (474) 
CHEMBL3791910

>  <Assay Description>  (474) 
Inhibition of recombinant human wild type ALK using tyrosine kinase substrate-biotin after 30 mins by HTRF assay

>  <BAO Format ID>  (474) 
BAO_0000357

>  <BAO Label>  (474) 
single protein format

>  <Assay Organism>  (474) 
Homo sapiens

>  <Target ChEMBL ID>  (474) 
CHEMBL4247

>  <Target Name>  (474) 
ALK tyrosine kinase receptor

>  <Target Organism>  (474) 
Homo sapiens

>  <Target Type>  (474) 
SINGLE PROTEIN

>  <Document ChEMBL ID>  (474) 
CHEMBL3785058

>  <Source Description>  (474) 
Scientific Literature

>  <Document Journal>  (474) 
Bioorg Med Chem Lett

>  <Document Year>  (474) 
2016.0

>  <Active>  (474) 
1.0

>  <bits>  (474) 
<rdkit.DataStructs.cDataStructs.ExplicitBitVect object at 0x000002422F233060>

>  <Group>  (474) 
G2

$$$$

     RDKit          2D

 39 43  0  0  0  0  0  0  0  0999 V2000
   -1.9140   14.9539    0.0000 C   0  0  0  0  0  0  0  0  0  0  0  0
   -0.4140   14.9539    0.0000 C   0  0  0  0  0  0  0  0  0  0  0  0
    0.3360   16.2529    0.0000 C   0  0  0  0  0  0  0  0  0  0  0  0
    0.3360   13.6549    0.0000 S   0  0  0  0  0  0  0  0  0  0  0  0
   -0.9630   12.9049    0.0000 O   0  0  0  0  0  0  0  0  0  0  0  0
    1.6351   14.4049    0.0000 O   0  0  0  0  0  0  0  0  0  0  0  0
    1.0860   12.3558    0.0000 C   0  0  0  0  0  0  0  0  0  0  0  0
    2.5860   12.3558    0.0000 C   0  0  0  0  0  0  0  0  0  0  0  0
    3.3360   11.0568    0.0000 C   0  0  0  0  0  0  0  0  0  0  0  0
    2.5860    9.7578    0.0000 C   0  0  0  0  0  0  0  0  0  0  0  0
    1.0860    9.7578    0.0000 C   0  0  0  0  0  0  0  0  0  0  0  0
    0.3360   11.0568    0.0000 C   0  0  0  0  0  0  0  0  0  0  0  0
   -1.1640   11.0568    0.0000 N   0  0  0  0  0  0  0  0  0  0  0  0
   -1.9140    9.7578    0.0000 C   0  0  0  0  0  0  0  0  0  0  0  0
   -3.4140    9.7578    0.0000 N   0  0  0  0  0  0  0  0  0  0  0  0
   -4.1640    8.4587    0.0000 C   0  0  0  0  0  0  0  0  0  0  0  0
   -5.6640    8.4587    0.0000 N   0  0  0  0  0  0  0  0  0  0  0  0
   -6.4140    7.1597    0.0000 C   0  0  0  0  0  0  0  0  0  0  0  0
   -7.9140    7.1597    0.0000 C   0  0  0  0  0  0  0  0  0  0  0  0
   -8.6640    5.8606    0.0000 C   0  0  0  0  0  0  0  0  0  0  0  0
   -7.9140    4.5616    0.0000 C   0  0  0  0  0  0  0  0  0  0  0  0
   -6.4140    4.5616    0.0000 C   0  0  0  0  0  0  0  0  0  0  0  0
   -5.6640    3.2626    0.0000 N   0  0  0  0  0  0  0  0  0  0  0  0
   -4.1640    3.2626    0.0000 C   0  0  0  0  0  0  0  0  0  0  0  0
   -3.4140    4.5616    0.0000 O   0  0  0  0  0  0  0  0  0  0  0  0
   -3.4140    1.9635    0.0000 C   0  0  0  0  0  0  0  0  0  0  0  0
   -1.9140    1.9635    0.0000 N   0  0  0  0  0  0  0  0  0  0  0  0
   -1.0323    3.1771    0.0000 C   0  0  0  0  0  0  0  0  0  0  0  0
    0.3943    2.7135    0.0000 C   0  0  0  0  0  0  0  0  0  0  0  0
    0.3943    1.2135    0.0000 C   0  0  0  0  0  0  0  0  0  0  0  0
    1.2760    0.0000    0.0000 C   0  0  0  0  0  0  0  0  0  0  0  0
    0.3943   -1.2135    0.0000 N   0  0  0  0  0  0  0  0  0  0  0  0
   -1.0323   -0.7500    0.0000 C   0  0  0  0  0  0  0  0  0  0  0  0
   -1.0323    0.7500    0.0000 C   0  0  0  0  0  0  0  0  0  0  0  0
   -5.6640    5.8606    0.0000 C   0  0  0  0  0  0  0  0  0  0  0  0
   -3.4140    7.1597    0.0000 N   0  0  0  0  0  0  0  0  0  0  0  0
   -1.9140    7.1597    0.0000 C   0  0  0  0  0  0  0  0  0  0  0  0
   -1.1640    8.4587    0.0000 C   0  0  0  0  0  0  0  0  0  0  0  0
    0.3360    8.4587    0.0000 Cl  0  0  0  0  0  0  0  0  0  0  0  0
  1  2  1  0
  2  3  1  0
  2  4  1  0
  4  5  2  0
  4  6  2  0
  4  7  1  0
  7  8  2  0
  8  9  1  0
  9 10  2  0
 10 11  1  0
 11 12  2  0
 12 13  1  0
 13 14  1  0
 14 15  2  0
 15 16  1  0
 16 17  1  0
 17 18  1  0
 18 19  2  0
 19 20  1  0
 20 21  2  0
 21 22  1  0
 22 23  1  0
 23 24  1  0
 24 25  2  0
 24 26  1  0
 26 27  1  0
 27 28  1  0
 28 29  1  0
 29 30  1  0
 30 31  1  0
 31 32  1  0
 32 33  1  0
 33 34  1  0
 22 35  2  0
 16 36  2  0
 36 37  1  0
 37 38  2  0
 38 39  1  0
 12  7  1  0
 38 14  1  0
 35 18  1  0
 34 27  1  0
 34 30  1  0
M  END
>  <Compound_ID>  (475) 
CHEMBL3357463

>  <Molecule Name>  (475) 
nan

>  <Molecular Weight>  (475) 
570.12

>  <AlogP>  (475) 
4.03

>  <Smiles>  (475) 
CC(C)S(=O)(=O)c1ccccc1Nc1nc(Nc2cccc(NC(=O)CN3CCC4CNCC43)c2)ncc1Cl

>  <Standard Type>  (475) 
IC50

>  <Standard Relation>  (475) 
'='

>  <Standard Units>  (475) 
nM

>  <Standard Value>  (475) 
2.3

>  <Assay ChEMBL ID>  (475) 
CHEMBL3364272

>  <Assay Description>  (475) 
Inhibition of ALK (unknown origin) after 60 mins by ELISA

>  <BAO Format ID>  (475) 
BAO_0000357

>  <BAO Label>  (475) 
single protein format

>  <Assay Organism>  (475) 
Homo sapiens

>  <Target ChEMBL ID>  (475) 
CHEMBL4247

>  <Target Name>  (475) 
ALK tyrosine kinase receptor

>  <Target Organism>  (475) 
Homo sapiens

>  <Target Type>  (475) 
SINGLE PROTEIN

>  <Document ChEMBL ID>  (475) 
CHEMBL3351234

>  <Source Description>  (475) 
Scientific Literature

>  <Document Journal>  (475) 
J Med Chem

>  <Document Year>  (475) 
2015.0

>  <Active>  (475) 
1.0

>  <bits>  (475) 
<rdkit.DataStructs.cDataStructs.ExplicitBitVect object at 0x000002422F233290>

>  <Group>  (475) 
G2

$$$$

     RDKit          2D

 33 37  0  0  0  0  0  0  0  0999 V2000
   -4.9138   19.9772    0.0000 C   0  0  0  0  0  0  0  0  0  0  0  0
   -5.2256   18.5099    0.0000 N   0  0  0  0  0  0  0  0  0  0  0  0
   -4.1109   17.5063    0.0000 C   0  0  0  0  0  0  0  0  0  0  0  0
   -4.4228   16.0390    0.0000 C   0  0  0  0  0  0  0  0  0  0  0  0
   -5.8494   15.5755    0.0000 N   0  0  0  0  0  0  0  0  0  0  0  0
   -6.1613   14.1083    0.0000 C   0  0  0  0  0  0  0  0  0  0  0  0
   -5.0465   13.1046    0.0000 C   0  0  0  0  0  0  0  0  0  0  0  0
   -5.3584   11.6374    0.0000 C   0  0  0  0  0  0  0  0  0  0  0  0
   -4.2437   10.6337    0.0000 C   0  0  0  0  0  0  0  0  0  0  0  0
   -2.8171   11.0972    0.0000 C   0  0  0  0  0  0  0  0  0  0  0  0
   -1.7024   10.0935    0.0000 N   0  0  0  0  0  0  0  0  0  0  0  0
   -2.0143    8.6263    0.0000 C   0  0  0  0  0  0  0  0  0  0  0  0
   -3.4408    8.1628    0.0000 O   0  0  0  0  0  0  0  0  0  0  0  0
   -0.8995    7.6226    0.0000 C   0  0  0  0  0  0  0  0  0  0  0  0
   -1.2114    6.1554    0.0000 C   0  0  0  0  0  0  0  0  0  0  0  0
   -0.0967    5.1517    0.0000 C   0  0  0  0  0  0  0  0  0  0  0  0
   -0.4086    3.6844    0.0000 C   0  0  0  0  0  0  0  0  0  0  0  0
   -1.8351    3.2209    0.0000 C   0  0  0  0  0  0  0  0  0  0  0  0
   -2.1470    1.7537    0.0000 C   0  0  0  0  0  0  0  0  0  0  0  0
   -1.0323    0.7500    0.0000 C   0  0  0  0  0  0  0  0  0  0  0  0
    0.3943    1.2135    0.0000 C   0  0  0  0  0  0  0  0  0  0  0  0
    0.7062    2.6807    0.0000 C   0  0  0  0  0  0  0  0  0  0  0  0
    1.2760    0.0000    0.0000 O   0  0  0  0  0  0  0  0  0  0  0  0
    0.3943   -1.2135    0.0000 C   0  0  0  0  0  0  0  0  0  0  0  0
   -1.0323   -0.7500    0.0000 O   0  0  0  0  0  0  0  0  0  0  0  0
    1.3299    5.6152    0.0000 C   0  0  0  0  0  0  0  0  0  0  0  0
    1.6418    7.0824    0.0000 N   0  0  0  0  0  0  0  0  0  0  0  0
    0.5271    8.0861    0.0000 C   0  0  0  0  0  0  0  0  0  0  0  0
    0.8389    9.5533    0.0000 Cl  0  0  0  0  0  0  0  0  0  0  0  0
   -2.5052   12.5644    0.0000 C   0  0  0  0  0  0  0  0  0  0  0  0
   -3.6200   13.5681    0.0000 C   0  0  0  0  0  0  0  0  0  0  0  0
   -6.9641   16.5792    0.0000 C   0  0  0  0  0  0  0  0  0  0  0  0
   -6.6522   18.0464    0.0000 C   0  0  0  0  0  0  0  0  0  0  0  0
  1  2  1  0
  2  3  1  0
  3  4  1  0
  4  5  1  0
  5  6  1  0
  6  7  1  0
  7  8  2  0
  8  9  1  0
  9 10  2  0
 10 11  1  0
 11 12  1  0
 12 13  2  0
 12 14  1  0
 14 15  2  0
 15 16  1  0
 16 17  1  0
 17 18  2  0
 18 19  1  0
 19 20  2  0
 20 21  1  0
 21 22  2  0
 21 23  1  0
 23 24  1  0
 24 25  1  0
 16 26  2  0
 26 27  1  0
 27 28  2  0
 28 29  1  0
 10 30  1  0
 30 31  2  0
  5 32  1  0
 32 33  1  0
 33  2  1  0
 31  7  1  0
 28 14  1  0
 22 17  1  0
 25 20  1  0
M  END
>  <Compound_ID>  (476) 
CHEMBL199298

>  <Molecule Name>  (476) 
nan

>  <Molecular Weight>  (476) 
464.95

>  <AlogP>  (476) 
4.13

>  <Smiles>  (476) 
CN1CCN(Cc2ccc(NC(=O)c3cc(-c4ccc5c(c4)OCO5)cnc3Cl)cc2)CC1

>  <Standard Type>  (476) 
IC50

>  <Standard Relation>  (476) 
'='

>  <Standard Units>  (476) 
nM

>  <Standard Value>  (476) 
26800.0

>  <Assay ChEMBL ID>  (476) 
CHEMBL867052

>  <Assay Description>  (476) 
Inhibitory activity against ALK

>  <BAO Format ID>  (476) 
BAO_0000357

>  <BAO Label>  (476) 
single protein format

>  <Assay Organism>  (476) 
None

>  <Target ChEMBL ID>  (476) 
CHEMBL4247

>  <Target Name>  (476) 
ALK tyrosine kinase receptor

>  <Target Organism>  (476) 
Homo sapiens

>  <Target Type>  (476) 
SINGLE PROTEIN

>  <Document ChEMBL ID>  (476) 
CHEMBL1149386

>  <Source Description>  (476) 
Scientific Literature

>  <Document Journal>  (476) 
J Med Chem

>  <Document Year>  (476) 
2006.0

>  <Active>  (476) 
0.0

>  <bits>  (476) 
<rdkit.DataStructs.cDataStructs.ExplicitBitVect object at 0x000002422C1B97E0>

>  <Group>  (476) 
G2

$$$$

     RDKit          2D

 17 19  0  0  0  0  0  0  0  0999 V2000
    3.0000    0.0000    0.0000 N   0  0  0  0  0  0  0  0  0  0  0  0
    1.5000    0.0000    0.0000 C   0  0  0  0  0  0  0  0  0  0  0  0
    0.7500   -1.2990    0.0000 C   0  0  0  0  0  0  0  0  0  0  0  0
   -0.7500   -1.2990    0.0000 C   0  0  0  0  0  0  0  0  0  0  0  0
   -1.5000    0.0000    0.0000 C   0  0  0  0  0  0  0  0  0  0  0  0
   -0.7500    1.2990    0.0000 C   0  0  0  0  0  0  0  0  0  0  0  0
    0.7500    1.2990    0.0000 C   0  0  0  0  0  0  0  0  0  0  0  0
   -1.7537    2.4138    0.0000 C   0  0  0  0  0  0  0  0  0  0  0  0
   -1.4418    3.8810    0.0000 C   0  0  0  0  0  0  0  0  0  0  0  0
   -2.5565    4.8847    0.0000 C   0  0  0  0  0  0  0  0  0  0  0  0
   -4.0238    4.5728    0.0000 C   0  0  0  0  0  0  0  0  0  0  0  0
   -4.7738    5.8718    0.0000 C   0  0  0  0  0  0  0  0  0  0  0  0
   -3.7701    6.9866    0.0000 C   0  0  0  0  0  0  0  0  0  0  0  0
   -2.3998    6.3765    0.0000 N   0  0  0  0  0  0  0  0  0  0  0  0
   -3.1240    1.8037    0.0000 C   0  0  0  0  0  0  0  0  0  0  0  0
   -4.4231    2.5537    0.0000 O   0  0  0  0  0  0  0  0  0  0  0  0
   -2.9672    0.3119    0.0000 N   0  0  0  0  0  0  0  0  0  0  0  0
  1  2  1  0
  2  3  2  0
  3  4  1  0
  4  5  2  0
  5  6  1  0
  6  7  2  0
  6  8  1  0
  8  9  2  0
  9 10  1  0
 10 11  2  0
 11 12  1  0
 12 13  2  0
 13 14  1  0
  8 15  1  0
 15 16  2  0
 15 17  1  0
  7  2  1  0
 14 10  1  0
 17  5  1  0
M  END
>  <Compound_ID>  (477) 
CHEMBL232144

>  <Molecule Name>  (477) 
nan

>  <Molecular Weight>  (477) 
225.25

>  <AlogP>  (477) 
2.09

>  <Smiles>  (477) 
Nc1ccc2c(c1)/C(=C/c1ccc[nH]1)C(=O)N2

>  <Standard Type>  (477) 
IC50

>  <Standard Relation>  (477) 
'='

>  <Standard Units>  (477) 
nM

>  <Standard Value>  (477) 
11000.0

>  <Assay ChEMBL ID>  (477) 
CHEMBL1071418

>  <Assay Description>  (477) 
Inhibition of ALK by ELISA-based kinase assay

>  <BAO Format ID>  (477) 
BAO_0000357

>  <BAO Label>  (477) 
single protein format

>  <Assay Organism>  (477) 
None

>  <Target ChEMBL ID>  (477) 
CHEMBL4247

>  <Target Name>  (477) 
ALK tyrosine kinase receptor

>  <Target Organism>  (477) 
Homo sapiens

>  <Target Type>  (477) 
SINGLE PROTEIN

>  <Document ChEMBL ID>  (477) 
CHEMBL1156925

>  <Source Description>  (477) 
Scientific Literature

>  <Document Journal>  (477) 
Bioorg Med Chem

>  <Document Year>  (477) 
2010.0

>  <Active>  (477) 
0.0

>  <bits>  (477) 
<rdkit.DataStructs.cDataStructs.ExplicitBitVect object at 0x000002422C1BA650>

>  <Group>  (477) 
G2

$$$$

     RDKit          2D

 37 41  0  0  0  0  0  0  0  0999 V2000
    2.6491   -3.5623    0.0000 C   0  0  0  0  0  0  0  0  0  0  0  0
    1.5000   -2.5981    0.0000 C   0  0  0  0  0  0  0  0  0  0  0  0
    2.6491   -1.6339    0.0000 C   0  0  0  0  0  0  0  0  0  0  0  0
    0.7500   -1.2990    0.0000 C   0  0  0  0  0  0  0  0  0  0  0  0
    1.5000    0.0000    0.0000 C   0  0  0  0  0  0  0  0  0  0  0  0
    0.7500    1.2990    0.0000 C   0  0  0  0  0  0  0  0  0  0  0  0
    1.5000    2.5981    0.0000 O   0  0  0  0  0  0  0  0  0  0  0  0
    3.0000    2.5981    0.0000 C   0  0  0  0  0  0  0  0  0  0  0  0
    3.7500    3.8971    0.0000 C   0  0  0  0  0  0  0  0  0  0  0  0
    3.0000    5.1962    0.0000 O   0  0  0  0  0  0  0  0  0  0  0  0
    5.2500    3.8971    0.0000 C   0  0  0  0  0  0  0  0  0  0  0  0
    6.0000    2.5981    0.0000 O   0  0  0  0  0  0  0  0  0  0  0  0
    6.0000    5.1962    0.0000 C   0  0  0  0  0  0  0  0  0  0  0  0
    7.5000    5.1962    0.0000 O   0  0  0  0  0  0  0  0  0  0  0  0
   -0.7500    1.2990    0.0000 C   0  0  0  0  0  0  0  0  0  0  0  0
   -1.5000    0.0000    0.0000 C   0  0  0  0  0  0  0  0  0  0  0  0
   -0.7500   -1.2990    0.0000 C   0  0  0  0  0  0  0  0  0  0  0  0
   -1.5000   -2.5981    0.0000 C   0  0  0  0  0  0  0  0  0  0  0  0
   -3.0000   -2.5981    0.0000 O   0  0  0  0  0  0  0  0  0  0  0  0
   -0.7500   -3.8971    0.0000 C   0  0  0  0  0  0  0  0  0  0  0  0
    0.7500   -3.8971    0.0000 C   0  0  0  0  0  0  0  0  0  0  0  0
    1.2135   -5.3237    0.0000 N   0  0  0  0  0  0  0  0  0  0  0  0
    0.0000   -6.2054    0.0000 C   0  0  0  0  0  0  0  0  0  0  0  0
   -0.1568   -7.6972    0.0000 C   0  0  0  0  0  0  0  0  0  0  0  0
   -1.5271   -8.3073    0.0000 C   0  0  0  0  0  0  0  0  0  0  0  0
   -1.6839   -9.7990    0.0000 C   0  0  0  0  0  0  0  0  0  0  0  0
   -0.4704  -10.6807    0.0000 O   0  0  0  0  0  0  0  0  0  0  0  0
   -3.0542  -10.4092    0.0000 N   0  0  0  0  0  0  0  0  0  0  0  0
   -3.2110  -11.9009    0.0000 C   0  0  0  0  0  0  0  0  0  0  0  0
   -4.5813  -12.5110    0.0000 C   0  0  0  0  0  0  0  0  0  0  0  0
   -4.7381  -14.0028    0.0000 C   0  0  0  0  0  0  0  0  0  0  0  0
   -3.5246  -14.8845    0.0000 C   0  0  0  0  0  0  0  0  0  0  0  0
   -2.1543  -14.2744    0.0000 C   0  0  0  0  0  0  0  0  0  0  0  0
   -1.9975  -12.7826    0.0000 C   0  0  0  0  0  0  0  0  0  0  0  0
   -2.7406   -7.4256    0.0000 C   0  0  0  0  0  0  0  0  0  0  0  0
   -2.5838   -5.9338    0.0000 C   0  0  0  0  0  0  0  0  0  0  0  0
   -1.2135   -5.3237    0.0000 C   0  0  0  0  0  0  0  0  0  0  0  0
  1  2  1  0
  2  3  1  0
  2  4  1  0
  4  5  2  0
  5  6  1  0
  6  7  1  0
  7  8  1  0
  8  9  1  0
  9 10  1  1
  9 11  1  0
 11 12  1  1
 11 13  1  0
 13 14  1  0
  6 15  2  0
 15 16  1  0
 16 17  2  0
 17 18  1  0
 18 19  2  0
 18 20  1  0
 20 21  2  0
 21 22  1  0
 22 23  1  0
 23 24  2  0
 24 25  1  0
 25 26  1  0
 26 27  2  0
 26 28  1  0
 28 29  1  0
 29 30  2  0
 30 31  1  0
 31 32  2  0
 32 33  1  0
 33 34  2  0
 25 35  2  0
 35 36  1  0
 36 37  2  0
 21  2  1  0
 37 23  1  0
 17  4  1  0
 37 20  1  0
 34 29  1  0
M  END
>  <Compound_ID>  (478) 
CHEMBL4110008

>  <Molecule Name>  (478) 
nan

>  <Molecular Weight>  (478) 
500.55

>  <AlogP>  (478) 
3.38

>  <Smiles>  (478) 
CC1(C)c2cc(OC[C@@H](O)[C@H](O)CO)ccc2C(=O)c2c1[nH]c1cc(C(=O)Nc3ccccc3)ccc21

>  <Standard Type>  (478) 
IC50

>  <Standard Relation>  (478) 
'='

>  <Standard Units>  (478) 
nM

>  <Standard Value>  (478) 
12951.9

>  <Assay ChEMBL ID>  (478) 
CHEMBL3887074

>  <Assay Description>  (478) 
Inhibition Assay: ALK-inhibiting activity was measured by following an activity of inhibiting phosphorylation by biotinylated peptide (EGPWLEEEEEAYGWMDF). For the detection of phosphorylation of the biotinylated peptide, time-resolved fluorescence measurement was performed using an anti-phosphorylated tyrosine antibody labeled with europium cryptate and streptavidin conjugated to XL665, i.e., an allophycocyanin derivative.

>  <BAO Format ID>  (478) 
BAO_0000357

>  <BAO Label>  (478) 
single protein format

>  <Assay Organism>  (478) 
Homo sapiens

>  <Target ChEMBL ID>  (478) 
CHEMBL4247

>  <Target Name>  (478) 
ALK tyrosine kinase receptor

>  <Target Organism>  (478) 
Homo sapiens

>  <Target Type>  (478) 
SINGLE PROTEIN

>  <Document ChEMBL ID>  (478) 
CHEMBL3886150

>  <Source Description>  (478) 
BindingDB Database

>  <Document Journal>  (478) 
nan

>  <Document Year>  (478) 
2015.0

>  <Active>  (478) 
0.0

>  <bits>  (478) 
<rdkit.DataStructs.cDataStructs.ExplicitBitVect object at 0x000002422C1B9620>

>  <Group>  (478) 
G2

$$$$

     RDKit          2D

 38 42  0  0  0  0  0  0  0  0999 V2000
    8.2500   -3.8971    0.0000 C   0  0  0  0  0  0  0  0  0  0  0  0
    7.5000   -2.5981    0.0000 C   0  0  0  0  0  0  0  0  0  0  0  0
    6.0000   -2.5981    0.0000 N   0  0  0  0  0  0  0  0  0  0  0  0
    5.2500   -3.8971    0.0000 C   0  0  0  0  0  0  0  0  0  0  0  0
    6.0000   -5.1962    0.0000 C   0  0  0  0  0  0  0  0  0  0  0  0
    5.2500   -1.2990    0.0000 C   0  0  0  0  0  0  0  0  0  0  0  0
    3.7500   -1.2990    0.0000 C   0  0  0  0  0  0  0  0  0  0  0  0
    3.0000    0.0000    0.0000 O   0  0  0  0  0  0  0  0  0  0  0  0
    1.5000    0.0000    0.0000 C   0  0  0  0  0  0  0  0  0  0  0  0
    0.7500   -1.2990    0.0000 C   0  0  0  0  0  0  0  0  0  0  0  0
   -0.7500   -1.2990    0.0000 C   0  0  0  0  0  0  0  0  0  0  0  0
   -1.5000    0.0000    0.0000 C   0  0  0  0  0  0  0  0  0  0  0  0
   -0.7500    1.2990    0.0000 C   0  0  0  0  0  0  0  0  0  0  0  0
    0.7500    1.2990    0.0000 C   0  0  0  0  0  0  0  0  0  0  0  0
   -1.5000    2.5981    0.0000 C   0  0  0  0  0  0  0  0  0  0  0  0
   -1.7605    4.0753    0.0000 C   0  0  0  0  0  0  0  0  0  0  0  0
   -0.0905    3.1111    0.0000 C   0  0  0  0  0  0  0  0  0  0  0  0
   -3.0000    2.5981    0.0000 C   0  0  0  0  0  0  0  0  0  0  0  0
   -4.0037    3.7128    0.0000 N   0  0  0  0  0  0  0  0  0  0  0  0
   -5.3740    3.1027    0.0000 C   0  0  0  0  0  0  0  0  0  0  0  0
   -6.7443    3.7128    0.0000 C   0  0  0  0  0  0  0  0  0  0  0  0
   -7.9579    2.8311    0.0000 C   0  0  0  0  0  0  0  0  0  0  0  0
   -9.3282    3.4412    0.0000 N   0  0  0  0  0  0  0  0  0  0  0  0
   -9.4850    4.9330    0.0000 C   0  0  0  0  0  0  0  0  0  0  0  0
   -8.2714    5.8147    0.0000 O   0  0  0  0  0  0  0  0  0  0  0  0
  -10.8553    5.5431    0.0000 C   0  0  0  0  0  0  0  0  0  0  0  0
  -11.0121    7.0349    0.0000 C   0  0  0  0  0  0  0  0  0  0  0  0
   -9.7986    7.9166    0.0000 C   0  0  0  0  0  0  0  0  0  0  0  0
   -9.9553    9.4084    0.0000 C   0  0  0  0  0  0  0  0  0  0  0  0
  -11.3257   10.0185    0.0000 C   0  0  0  0  0  0  0  0  0  0  0  0
  -12.5392    9.1368    0.0000 C   0  0  0  0  0  0  0  0  0  0  0  0
  -12.3824    7.6450    0.0000 C   0  0  0  0  0  0  0  0  0  0  0  0
   -7.8011    1.3393    0.0000 C   0  0  0  0  0  0  0  0  0  0  0  0
   -6.4307    0.7292    0.0000 C   0  0  0  0  0  0  0  0  0  0  0  0
   -5.2172    1.6109    0.0000 C   0  0  0  0  0  0  0  0  0  0  0  0
   -3.7500    1.2990    0.0000 C   0  0  0  0  0  0  0  0  0  0  0  0
   -3.0000    0.0000    0.0000 C   0  0  0  0  0  0  0  0  0  0  0  0
   -3.7500   -1.2990    0.0000 O   0  0  0  0  0  0  0  0  0  0  0  0
  1  2  1  0
  2  3  1  0
  3  4  1  0
  4  5  1  0
  3  6  1  0
  6  7  1  0
  7  8  1  0
  8  9  1  0
  9 10  2  0
 10 11  1  0
 11 12  2  0
 12 13  1  0
 13 14  2  0
 13 15  1  0
 15 16  1  0
 15 17  1  0
 15 18  1  0
 18 19  1  0
 19 20  1  0
 20 21  2  0
 21 22  1  0
 22 23  1  0
 23 24  1  0
 24 25  2  0
 24 26  1  0
 26 27  1  0
 27 28  2  0
 28 29  1  0
 29 30  2  0
 30 31  1  0
 31 32  2  0
 22 33  2  0
 33 34  1  0
 34 35  2  0
 35 36  1  0
 36 37  1  0
 37 38  2  0
 14  9  1  0
 36 18  2  0
 37 12  1  0
 35 20  1  0
 32 27  1  0
M  END
>  <Compound_ID>  (479) 
CHEMBL3966467

>  <Molecule Name>  (479) 
nan

>  <Molecular Weight>  (479) 
509.65

>  <AlogP>  (479) 
5.94

>  <Smiles>  (479) 
CCN(CC)CCOc1ccc2c(c1)C(C)(C)c1[nH]c3cc(NC(=O)Cc4ccccc4)ccc3c1C2=O

>  <Standard Type>  (479) 
IC50

>  <Standard Relation>  (479) 
'='

>  <Standard Units>  (479) 
nM

>  <Standard Value>  (479) 
21307.8

>  <Assay ChEMBL ID>  (479) 
CHEMBL3887074

>  <Assay Description>  (479) 
Inhibition Assay: ALK-inhibiting activity was measured by following an activity of inhibiting phosphorylation by biotinylated peptide (EGPWLEEEEEAYGWMDF). For the detection of phosphorylation of the biotinylated peptide, time-resolved fluorescence measurement was performed using an anti-phosphorylated tyrosine antibody labeled with europium cryptate and streptavidin conjugated to XL665, i.e., an allophycocyanin derivative.

>  <BAO Format ID>  (479) 
BAO_0000357

>  <BAO Label>  (479) 
single protein format

>  <Assay Organism>  (479) 
Homo sapiens

>  <Target ChEMBL ID>  (479) 
CHEMBL4247

>  <Target Name>  (479) 
ALK tyrosine kinase receptor

>  <Target Organism>  (479) 
Homo sapiens

>  <Target Type>  (479) 
SINGLE PROTEIN

>  <Document ChEMBL ID>  (479) 
CHEMBL3886150

>  <Source Description>  (479) 
BindingDB Database

>  <Document Journal>  (479) 
nan

>  <Document Year>  (479) 
2015.0

>  <Active>  (479) 
0.0

>  <bits>  (479) 
<rdkit.DataStructs.cDataStructs.ExplicitBitVect object at 0x000002422C1BAA40>

>  <Group>  (479) 
G2

$$$$

     RDKit          2D

 34 37  0  0  0  0  0  0  0  0999 V2000
    5.2500   -1.2990    0.0000 C   0  0  0  0  0  0  0  0  0  0  0  0
    3.7500   -1.2990    0.0000 N   0  0  0  0  0  0  0  0  0  0  0  0
    3.0000   -2.5981    0.0000 C   0  0  0  0  0  0  0  0  0  0  0  0
    3.0000    0.0000    0.0000 C   0  0  0  0  0  0  0  0  0  0  0  0
    3.7500    1.2990    0.0000 O   0  0  0  0  0  0  0  0  0  0  0  0
    1.5000    0.0000    0.0000 C   0  0  0  0  0  0  0  0  0  0  0  0
    0.7500   -1.2990    0.0000 C   0  0  0  0  0  0  0  0  0  0  0  0
   -0.7500   -1.2990    0.0000 C   0  0  0  0  0  0  0  0  0  0  0  0
   -1.5000    0.0000    0.0000 C   0  0  0  0  0  0  0  0  0  0  0  0
   -2.9672    0.3119    0.0000 C   0  0  0  0  0  0  0  0  0  0  0  0
   -3.1240    1.8037    0.0000 C   0  0  0  0  0  0  0  0  0  0  0  0
   -1.7537    2.4138    0.0000 N   0  0  0  0  0  0  0  0  0  0  0  0
   -1.4418    3.8810    0.0000 C   0  0  0  0  0  0  0  0  0  0  0  0
   -0.7500    1.2990    0.0000 C   0  0  0  0  0  0  0  0  0  0  0  0
    0.7500    1.2990    0.0000 C   0  0  0  0  0  0  0  0  0  0  0  0
   -4.4943    2.4138    0.0000 C   0  0  0  0  0  0  0  0  0  0  0  0
   -5.5733    3.4557    0.0000 C   0  0  0  0  0  0  0  0  0  0  0  0
   -3.6555    3.6573    0.0000 C   0  0  0  0  0  0  0  0  0  0  0  0
   -5.7079    1.5321    0.0000 C   0  0  0  0  0  0  0  0  0  0  0  0
   -7.0782    2.1422    0.0000 C   0  0  0  0  0  0  0  0  0  0  0  0
   -8.2917    1.2605    0.0000 C   0  0  0  0  0  0  0  0  0  0  0  0
   -9.6620    1.8706    0.0000 O   0  0  0  0  0  0  0  0  0  0  0  0
   -9.8188    3.3624    0.0000 C   0  0  0  0  0  0  0  0  0  0  0  0
  -11.1891    3.9725    0.0000 C   0  0  0  0  0  0  0  0  0  0  0  0
  -12.4027    3.0908    0.0000 O   0  0  0  0  0  0  0  0  0  0  0  0
  -11.3459    5.4643    0.0000 C   0  0  0  0  0  0  0  0  0  0  0  0
  -10.1324    6.3460    0.0000 O   0  0  0  0  0  0  0  0  0  0  0  0
  -12.7162    6.0744    0.0000 C   0  0  0  0  0  0  0  0  0  0  0  0
  -12.8730    7.5662    0.0000 O   0  0  0  0  0  0  0  0  0  0  0  0
   -8.1349   -0.2313    0.0000 C   0  0  0  0  0  0  0  0  0  0  0  0
   -6.7646   -0.8414    0.0000 C   0  0  0  0  0  0  0  0  0  0  0  0
   -5.5511    0.0403    0.0000 C   0  0  0  0  0  0  0  0  0  0  0  0
   -4.1807   -0.5698    0.0000 C   0  0  0  0  0  0  0  0  0  0  0  0
   -4.0240   -2.0616    0.0000 O   0  0  0  0  0  0  0  0  0  0  0  0
  1  2  1  0
  2  3  1  0
  2  4  1  0
  4  5  2  0
  4  6  1  0
  6  7  2  0
  7  8  1  0
  8  9  2  0
  9 10  1  0
 10 11  2  0
 11 12  1  0
 12 13  1  0
 12 14  1  0
 14 15  2  0
 11 16  1  0
 16 17  1  0
 16 18  1  0
 16 19  1  0
 19 20  2  0
 20 21  1  0
 21 22  1  0
 22 23  1  0
 23 24  1  0
 24 25  1  1
 24 26  1  0
 26 27  1  1
 26 28  1  0
 28 29  1  0
 21 30  2  0
 30 31  1  0
 31 32  2  0
 32 33  1  0
 33 34  2  0
 15  6  1  0
 32 19  1  0
 14  9  1  0
 33 10  1  0
M  END
>  <Compound_ID>  (480) 
CHEMBL4114864

>  <Molecule Name>  (480) 
nan

>  <Molecular Weight>  (480) 
466.53

>  <AlogP>  (480) 
1.84

>  <Smiles>  (480) 
CN(C)C(=O)c1ccc2c3c(n(C)c2c1)C(C)(C)c1cc(OC[C@@H](O)[C@H](O)CO)ccc1C3=O

>  <Standard Type>  (480) 
IC50

>  <Standard Relation>  (480) 
'='

>  <Standard Units>  (480) 
nM

>  <Standard Value>  (480) 
12970.4

>  <Assay ChEMBL ID>  (480) 
CHEMBL3887074

>  <Assay Description>  (480) 
Inhibition Assay: ALK-inhibiting activity was measured by following an activity of inhibiting phosphorylation by biotinylated peptide (EGPWLEEEEEAYGWMDF). For the detection of phosphorylation of the biotinylated peptide, time-resolved fluorescence measurement was performed using an anti-phosphorylated tyrosine antibody labeled with europium cryptate and streptavidin conjugated to XL665, i.e., an allophycocyanin derivative.

>  <BAO Format ID>  (480) 
BAO_0000357

>  <BAO Label>  (480) 
single protein format

>  <Assay Organism>  (480) 
Homo sapiens

>  <Target ChEMBL ID>  (480) 
CHEMBL4247

>  <Target Name>  (480) 
ALK tyrosine kinase receptor

>  <Target Organism>  (480) 
Homo sapiens

>  <Target Type>  (480) 
SINGLE PROTEIN

>  <Document ChEMBL ID>  (480) 
CHEMBL3886150

>  <Source Description>  (480) 
BindingDB Database

>  <Document Journal>  (480) 
nan

>  <Document Year>  (480) 
2015.0

>  <Active>  (480) 
0.0

>  <bits>  (480) 
<rdkit.DataStructs.cDataStructs.ExplicitBitVect object at 0x000002422C1BB220>

>  <Group>  (480) 
G2

$$$$

     RDKit          2D

 38 41  0  0  0  0  0  0  0  0999 V2000
   -1.7110    5.9853    0.0000 C   0  0  0  0  0  0  0  0  0  0  0  0
   -0.2487    5.6515    0.0000 O   0  0  0  0  0  0  0  0  0  0  0  0
    0.1935    4.2182    0.0000 C   0  0  0  0  0  0  0  0  0  0  0  0
   -0.8268    3.1186    0.0000 C   0  0  0  0  0  0  0  0  0  0  0  0
   -0.3846    1.6852    0.0000 C   0  0  0  0  0  0  0  0  0  0  0  0
    1.0777    1.3515    0.0000 C   0  0  0  0  0  0  0  0  0  0  0  0
    2.0980    2.4510    0.0000 C   0  0  0  0  0  0  0  0  0  0  0  0
    1.6559    3.8844    0.0000 C   0  0  0  0  0  0  0  0  0  0  0  0
    2.6761    4.9840    0.0000 N   0  0  0  0  0  0  0  0  0  0  0  0
    4.1385    4.6502    0.0000 C   0  0  0  0  0  0  0  0  0  0  0  0
    4.5807    3.2168    0.0000 N   0  0  0  0  0  0  0  0  0  0  0  0
    6.0430    2.8830    0.0000 C   0  0  0  0  0  0  0  0  0  0  0  0
    7.0633    3.9826    0.0000 C   0  0  0  0  0  0  0  0  0  0  0  0
    8.5257    3.6488    0.0000 Cl  0  0  0  0  0  0  0  0  0  0  0  0
    6.6212    5.4160    0.0000 C   0  0  0  0  0  0  0  0  0  0  0  0
    7.6414    6.5156    0.0000 N   0  0  0  0  0  0  0  0  0  0  0  0
    7.1993    7.9489    0.0000 C   0  0  0  0  0  0  0  0  0  0  0  0
    5.7369    8.2827    0.0000 C   0  0  0  0  0  0  0  0  0  0  0  0
    5.2948    9.7161    0.0000 C   0  0  0  0  0  0  0  0  0  0  0  0
    6.3150   10.8156    0.0000 C   0  0  0  0  0  0  0  0  0  0  0  0
    7.7774   10.4819    0.0000 C   0  0  0  0  0  0  0  0  0  0  0  0
    8.2196    9.0485    0.0000 C   0  0  0  0  0  0  0  0  0  0  0  0
    9.6820    8.7147    0.0000 S   0  0  0  0  0  0  0  0  0  0  0  0
    9.3482    7.2523    0.0000 O   0  0  0  0  0  0  0  0  0  0  0  0
   10.0157   10.1771    0.0000 O   0  0  0  0  0  0  0  0  0  0  0  0
   11.1443    8.3809    0.0000 C   0  0  0  0  0  0  0  0  0  0  0  0
   12.1646    9.4805    0.0000 C   0  0  0  0  0  0  0  0  0  0  0  0
   11.5865    6.9476    0.0000 C   0  0  0  0  0  0  0  0  0  0  0  0
    5.1588    5.7498    0.0000 N   0  0  0  0  0  0  0  0  0  0  0  0
    1.7286    0.0000    0.0000 C   0  0  0  0  0  0  0  0  0  0  0  0
    1.0777   -1.3515    0.0000 C   0  0  0  0  0  0  0  0  0  0  0  0
   -0.3846   -1.6852    0.0000 N   0  0  0  0  0  0  0  0  0  0  0  0
   -0.7184   -3.1476    0.0000 C   0  0  0  0  0  0  0  0  0  0  0  0
    0.3812   -4.1679    0.0000 O   0  0  0  0  0  0  0  0  0  0  0  0
   -2.1518   -3.5898    0.0000 C   0  0  0  0  0  0  0  0  0  0  0  0
   -2.4856   -5.0522    0.0000 O   0  0  0  0  0  0  0  0  0  0  0  0
   -1.5574   -0.7500    0.0000 C   0  0  0  0  0  0  0  0  0  0  0  0
   -1.5574    0.7500    0.0000 C   0  0  0  0  0  0  0  0  0  0  0  0
  1  2  1  0
  2  3  1  0
  3  4  2  0
  4  5  1  0
  5  6  2  0
  6  7  1  0
  7  8  2  0
  8  9  1  0
  9 10  1  0
 10 11  2  0
 11 12  1  0
 12 13  2  0
 13 14  1  0
 13 15  1  0
 15 16  1  0
 16 17  1  0
 17 18  2  0
 18 19  1  0
 19 20  2  0
 20 21  1  0
 21 22  2  0
 22 23  1  0
 23 24  2  0
 23 25  2  0
 23 26  1  0
 26 27  1  0
 26 28  1  0
 15 29  2  0
  6 30  1  0
 30 31  1  0
 31 32  1  0
 32 33  1  0
 33 34  2  0
 33 35  1  0
 35 36  1  0
 32 37  1  0
 37 38  1  0
  8  3  1  0
 29 10  1  0
 38  5  1  0
 22 17  1  0
M  END
>  <Compound_ID>  (481) 
CHEMBL3608533

>  <Molecule Name>  (481) 
nan

>  <Molecular Weight>  (481) 
560.08

>  <AlogP>  (481) 
3.73

>  <Smiles>  (481) 
COc1cc2c(cc1Nc1ncc(Cl)c(Nc3ccccc3S(=O)(=O)C(C)C)n1)CCN(C(=O)CO)CC2

>  <Standard Type>  (481) 
IC50

>  <Standard Relation>  (481) 
'='

>  <Standard Units>  (481) 
nM

>  <Standard Value>  (481) 
10000.0

>  <Assay ChEMBL ID>  (481) 
CHEMBL3610967

>  <Assay Description>  (481) 
Inhibition of ALK L1196M mutant (unknown origin) by homogeneous time resolved fluorescence assay

>  <BAO Format ID>  (481) 
BAO_0000357

>  <BAO Label>  (481) 
single protein format

>  <Assay Organism>  (481) 
Homo sapiens

>  <Target ChEMBL ID>  (481) 
CHEMBL4247

>  <Target Name>  (481) 
ALK tyrosine kinase receptor

>  <Target Organism>  (481) 
Homo sapiens

>  <Target Type>  (481) 
SINGLE PROTEIN

>  <Document ChEMBL ID>  (481) 
CHEMBL3608257

>  <Source Description>  (481) 
Scientific Literature

>  <Document Journal>  (481) 
Bioorg Med Chem Lett

>  <Document Year>  (481) 
2015.0

>  <Active>  (481) 
0.0

>  <bits>  (481) 
<rdkit.DataStructs.cDataStructs.ExplicitBitVect object at 0x000002422C1BAB20>

>  <Group>  (481) 
G2

$$$$

     RDKit          2D

 24 27  0  0  0  0  0  0  0  0999 V2000
   -1.0409   -5.7068    0.0000 C   0  0  0  0  0  0  0  0  0  0  0  0
   -0.5773   -4.2803    0.0000 C   0  0  0  0  0  0  0  0  0  0  0  0
    0.8899   -3.9684    0.0000 N   0  0  0  0  0  0  0  0  0  0  0  0
    2.0046   -4.9721    0.0000 N   0  0  0  0  0  0  0  0  0  0  0  0
    3.3037   -4.2221    0.0000 C   0  0  0  0  0  0  0  0  0  0  0  0
    2.9918   -2.7549    0.0000 C   0  0  0  0  0  0  0  0  0  0  0  0
    1.5000   -2.5981    0.0000 C   0  0  0  0  0  0  0  0  0  0  0  0
    0.7500   -1.2990    0.0000 C   0  0  0  0  0  0  0  0  0  0  0  0
    1.5000    0.0000    0.0000 C   0  0  0  0  0  0  0  0  0  0  0  0
    0.7500    1.2990    0.0000 C   0  0  0  0  0  0  0  0  0  0  0  0
   -0.7500    1.2990    0.0000 C   0  0  0  0  0  0  0  0  0  0  0  0
   -1.5000    2.5981    0.0000 C   0  0  0  0  0  0  0  0  0  0  0  0
   -0.7500    3.8971    0.0000 N   0  0  0  0  0  0  0  0  0  0  0  0
   -1.5000    5.1962    0.0000 C   0  0  0  0  0  0  0  0  0  0  0  0
   -0.7500    6.4952    0.0000 C   0  0  0  0  0  0  0  0  0  0  0  0
   -1.5000    7.7942    0.0000 C   0  0  0  0  0  0  0  0  0  0  0  0
   -3.0000    7.7942    0.0000 C   0  0  0  0  0  0  0  0  0  0  0  0
   -3.7500    6.4952    0.0000 C   0  0  0  0  0  0  0  0  0  0  0  0
   -3.0000    5.1962    0.0000 C   0  0  0  0  0  0  0  0  0  0  0  0
   -3.0000    2.5981    0.0000 C   0  0  0  0  0  0  0  0  0  0  0  0
   -3.7500    1.2990    0.0000 C   0  0  0  0  0  0  0  0  0  0  0  0
   -3.0000    0.0000    0.0000 N   0  0  0  0  0  0  0  0  0  0  0  0
   -1.5000    0.0000    0.0000 C   0  0  0  0  0  0  0  0  0  0  0  0
   -0.7500   -1.2990    0.0000 C   0  0  0  0  0  0  0  0  0  0  0  0
  1  2  1  0
  2  3  1  0
  3  4  1  0
  4  5  2  0
  5  6  1  0
  6  7  2  0
  7  8  1  0
  8  9  2  0
  9 10  1  0
 10 11  2  0
 11 12  1  0
 12 13  1  0
 13 14  1  0
 14 15  2  0
 15 16  1  0
 16 17  2  0
 17 18  1  0
 18 19  2  0
 12 20  2  0
 20 21  1  0
 21 22  2  0
 22 23  1  0
 23 24  2  0
  7  3  1  0
 24  8  1  0
 23 11  1  0
 19 14  1  0
M  END
>  <Compound_ID>  (482) 
CHEMBL4075012

>  <Molecule Name>  (482) 
nan

>  <Molecular Weight>  (482) 
314.39

>  <AlogP>  (482) 
4.86

>  <Smiles>  (482) 
CCn1nccc1-c1ccc2c(Nc3ccccc3)ccnc2c1

>  <Standard Type>  (482) 
IC50

>  <Standard Relation>  (482) 
'='

>  <Standard Units>  (482) 
nM

>  <Standard Value>  (482) 
23200.0

>  <Assay ChEMBL ID>  (482) 
CHEMBL4026782

>  <Assay Description>  (482) 
Inhibition of human wild type ALK using YRRAAVPPSPSLSRHSSPHQ(pS)EDEEE as substrate preincubated for 20 mins followed by [gamma-33P]-ATP addition after 2 hrs by filter binding assay

>  <BAO Format ID>  (482) 
BAO_0000357

>  <BAO Label>  (482) 
single protein format

>  <Assay Organism>  (482) 
Homo sapiens

>  <Target ChEMBL ID>  (482) 
CHEMBL4247

>  <Target Name>  (482) 
ALK tyrosine kinase receptor

>  <Target Organism>  (482) 
Homo sapiens

>  <Target Type>  (482) 
SINGLE PROTEIN

>  <Document ChEMBL ID>  (482) 
CHEMBL4024756

>  <Source Description>  (482) 
Scientific Literature

>  <Document Journal>  (482) 
J Med Chem

>  <Document Year>  (482) 
2017.0

>  <Active>  (482) 
0.0

>  <bits>  (482) 
<rdkit.DataStructs.cDataStructs.ExplicitBitVect object at 0x000002422C1BB840>

>  <Group>  (482) 
G2

$$$$

     RDKit          2D

 25 26  0  0  0  0  0  0  0  0999 V2000
    5.2500   -1.2990    0.0000 C   0  0  0  0  0  0  0  0  0  0  0  0
    3.7500   -1.2990    0.0000 O   0  0  0  0  0  0  0  0  0  0  0  0
    3.0000    0.0000    0.0000 C   0  0  0  0  0  0  0  0  0  0  0  0
    3.7500    1.2990    0.0000 O   0  0  0  0  0  0  0  0  0  0  0  0
    1.5000    0.0000    0.0000 C   0  0  0  0  0  0  0  0  0  0  0  0
    0.7500   -1.2990    0.0000 C   0  0  0  0  0  0  0  0  0  0  0  0
   -0.7500   -1.2990    0.0000 C   0  0  0  0  0  0  0  0  0  0  0  0
   -1.5000    0.0000    0.0000 C   0  0  0  0  0  0  0  0  0  0  0  0
   -3.0000    0.0000    0.0000 O   0  0  0  0  0  0  0  0  0  0  0  0
   -3.7500    1.2990    0.0000 C   0  0  0  0  0  0  0  0  0  0  0  0
   -0.7500    1.2990    0.0000 C   0  0  0  0  0  0  0  0  0  0  0  0
    0.7500    1.2990    0.0000 C   0  0  0  0  0  0  0  0  0  0  0  0
    1.5000    2.5981    0.0000 O   0  0  0  0  0  0  0  0  0  0  0  0
    0.7500    3.8971    0.0000 C   0  0  0  0  0  0  0  0  0  0  0  0
   -0.7500    3.8971    0.0000 N   0  0  0  0  0  0  0  0  0  0  0  0
   -1.5000    5.1962    0.0000 C   0  0  0  0  0  0  0  0  0  0  0  0
   -0.7500    6.4952    0.0000 N   0  0  0  0  0  0  0  0  0  0  0  0
    0.7500    6.4952    0.0000 C   0  0  0  0  0  0  0  0  0  0  0  0
    1.5000    7.7942    0.0000 O   0  0  0  0  0  0  0  0  0  0  0  0
    1.5000    5.1962    0.0000 C   0  0  0  0  0  0  0  0  0  0  0  0
    3.0000    5.1962    0.0000 C   0  0  0  0  0  0  0  0  0  0  0  0
    3.7500    6.4952    0.0000 C   0  0  0  0  0  0  0  0  0  0  0  0
    5.2500    6.4952    0.0000 C   0  0  0  0  0  0  0  0  0  0  0  0
    6.0000    7.7942    0.0000 C   0  0  0  0  0  0  0  0  0  0  0  0
    6.0000    5.1962    0.0000 O   0  0  0  0  0  0  0  0  0  0  0  0
  1  2  1  0
  2  3  1  0
  3  4  2  0
  3  5  1  0
  5  6  2  0
  6  7  1  0
  7  8  2  0
  8  9  1  0
  9 10  1  0
  8 11  1  0
 11 12  2  0
 12 13  1  0
 13 14  1  0
 14 15  1  0
 15 16  2  0
 16 17  1  0
 17 18  1  0
 18 19  2  0
 18 20  1  0
 20 21  1  0
 21 22  2  0
 22 23  1  0
 23 24  1  0
 23 25  2  0
 12  5  1  0
 20 14  2  0
M  END
>  <Compound_ID>  (483) 
CHEMBL1808100

>  <Molecule Name>  (483) 
nan

>  <Molecular Weight>  (483) 
344.32

>  <AlogP>  (483) 
1.96

>  <Smiles>  (483) 
COC(=O)c1ccc(OC)cc1Oc1nc[nH]c(=O)c1/C=C/C(C)=O

>  <Standard Type>  (483) 
IC50

>  <Standard Relation>  (483) 
'='

>  <Standard Units>  (483) 
nM

>  <Standard Value>  (483) 
10180.0

>  <Assay ChEMBL ID>  (483) 
CHEMBL1810103

>  <Assay Description>  (483) 
Inhibition of 6xHis-tagged NPM-ALK using biotinylated-poly(GT) peptide as substrate after 60 mins

>  <BAO Format ID>  (483) 
BAO_0000357

>  <BAO Label>  (483) 
single protein format

>  <Assay Organism>  (483) 
None

>  <Target ChEMBL ID>  (483) 
CHEMBL4247

>  <Target Name>  (483) 
ALK tyrosine kinase receptor

>  <Target Organism>  (483) 
Homo sapiens

>  <Target Type>  (483) 
SINGLE PROTEIN

>  <Document ChEMBL ID>  (483) 
CHEMBL1806450

>  <Source Description>  (483) 
Scientific Literature

>  <Document Journal>  (483) 
Bioorg Med Chem Lett

>  <Document Year>  (483) 
2011.0

>  <Active>  (483) 
0.0

>  <bits>  (483) 
<rdkit.DataStructs.cDataStructs.ExplicitBitVect object at 0x000002422C1BA730>

>  <Group>  (483) 
G2

$$$$

     RDKit          2D

 30 33  0  0  0  0  0  0  0  0999 V2000
    3.0000    0.0000    0.0000 C   0  0  0  0  0  0  0  0  0  0  0  0
    1.5000    0.0000    0.0000 N   0  0  0  0  0  0  0  0  0  0  0  0
    0.7500   -1.2990    0.0000 C   0  0  0  0  0  0  0  0  0  0  0  0
   -0.7500   -1.2990    0.0000 C   0  0  0  0  0  0  0  0  0  0  0  0
   -1.5000    0.0000    0.0000 N   0  0  0  0  0  0  0  0  0  0  0  0
   -3.0000    0.0000    0.0000 C   0  0  0  0  0  0  0  0  0  0  0  0
   -3.7500    1.2990    0.0000 C   0  0  0  0  0  0  0  0  0  0  0  0
   -3.0000    2.5981    0.0000 C   0  0  0  0  0  0  0  0  0  0  0  0
   -3.7500    3.8971    0.0000 C   0  0  0  0  0  0  0  0  0  0  0  0
   -5.2500    3.8971    0.0000 C   0  0  0  0  0  0  0  0  0  0  0  0
   -6.0000    5.1962    0.0000 N   0  0  0  0  0  0  0  0  0  0  0  0
   -5.2500    6.4952    0.0000 C   0  0  0  0  0  0  0  0  0  0  0  0
   -3.7500    6.4952    0.0000 O   0  0  0  0  0  0  0  0  0  0  0  0
   -6.0000    7.7942    0.0000 C   0  0  0  0  0  0  0  0  0  0  0  0
   -5.2500    9.0933    0.0000 C   0  0  0  0  0  0  0  0  0  0  0  0
   -6.0000   10.3923    0.0000 C   0  0  0  0  0  0  0  0  0  0  0  0
   -5.2500   11.6913    0.0000 C   0  0  0  0  0  0  0  0  0  0  0  0
   -3.7500   11.6913    0.0000 C   0  0  0  0  0  0  0  0  0  0  0  0
   -3.0000   12.9904    0.0000 C   0  0  0  0  0  0  0  0  0  0  0  0
   -3.7500   14.2894    0.0000 N   0  0  0  0  0  0  0  0  0  0  0  0
   -5.2500   14.2894    0.0000 C   0  0  0  0  0  0  0  0  0  0  0  0
   -6.0000   12.9904    0.0000 C   0  0  0  0  0  0  0  0  0  0  0  0
   -7.5000   10.3923    0.0000 C   0  0  0  0  0  0  0  0  0  0  0  0
   -8.2500    9.0933    0.0000 N   0  0  0  0  0  0  0  0  0  0  0  0
   -7.5000    7.7942    0.0000 C   0  0  0  0  0  0  0  0  0  0  0  0
   -8.2500    6.4952    0.0000 O   0  0  0  0  0  0  0  0  0  0  0  0
   -6.0000    2.5981    0.0000 C   0  0  0  0  0  0  0  0  0  0  0  0
   -5.2500    1.2990    0.0000 C   0  0  0  0  0  0  0  0  0  0  0  0
   -0.7500    1.2990    0.0000 C   0  0  0  0  0  0  0  0  0  0  0  0
    0.7500    1.2990    0.0000 C   0  0  0  0  0  0  0  0  0  0  0  0
  1  2  1  0
  2  3  1  0
  3  4  1  0
  4  5  1  0
  5  6  1  0
  6  7  1  0
  7  8  2  0
  8  9  1  0
  9 10  2  0
 10 11  1  0
 11 12  1  0
 12 13  2  0
 12 14  1  0
 14 15  2  0
 15 16  1  0
 16 17  1  0
 17 18  2  0
 18 19  1  0
 19 20  2  0
 20 21  1  0
 21 22  2  0
 16 23  2  0
 23 24  1  0
 24 25  2  0
 25 26  1  0
 10 27  1  0
 27 28  2  0
  5 29  1  0
 29 30  1  0
 30  2  1  0
 28  7  1  0
 25 14  1  0
 22 17  1  0
M  END
>  <Compound_ID>  (484) 
CHEMBL197652

>  <Molecule Name>  (484) 
nan

>  <Molecular Weight>  (484) 
403.49

>  <AlogP>  (484) 
2.85

>  <Smiles>  (484) 
CN1CCN(Cc2ccc(NC(=O)c3cc(-c4ccncc4)cnc3O)cc2)CC1

>  <Standard Type>  (484) 
IC50

>  <Standard Relation>  (484) 
'='

>  <Standard Units>  (484) 
nM

>  <Standard Value>  (484) 
19500.0

>  <Assay ChEMBL ID>  (484) 
CHEMBL867052

>  <Assay Description>  (484) 
Inhibitory activity against ALK

>  <BAO Format ID>  (484) 
BAO_0000357

>  <BAO Label>  (484) 
single protein format

>  <Assay Organism>  (484) 
None

>  <Target ChEMBL ID>  (484) 
CHEMBL4247

>  <Target Name>  (484) 
ALK tyrosine kinase receptor

>  <Target Organism>  (484) 
Homo sapiens

>  <Target Type>  (484) 
SINGLE PROTEIN

>  <Document ChEMBL ID>  (484) 
CHEMBL1149386

>  <Source Description>  (484) 
Scientific Literature

>  <Document Journal>  (484) 
J Med Chem

>  <Document Year>  (484) 
2006.0

>  <Active>  (484) 
0.0

>  <bits>  (484) 
<rdkit.DataStructs.cDataStructs.ExplicitBitVect object at 0x000002422C1BA490>

>  <Group>  (484) 
G2

$$$$

     RDKit          2D

 18 20  0  0  0  0  0  0  0  0999 V2000
    3.0000    0.0000    0.0000 Br  0  0  0  0  0  0  0  0  0  0  0  0
    1.5000    0.0000    0.0000 C   0  0  0  0  0  0  0  0  0  0  0  0
    0.7500   -1.2990    0.0000 C   0  0  0  0  0  0  0  0  0  0  0  0
   -0.7500   -1.2990    0.0000 C   0  0  0  0  0  0  0  0  0  0  0  0
   -1.5000    0.0000    0.0000 C   0  0  0  0  0  0  0  0  0  0  0  0
   -3.0000    0.0000    0.0000 C   0  0  0  0  0  0  0  0  0  0  0  0
   -3.7500   -1.2990    0.0000 N   0  0  0  0  0  0  0  0  0  0  0  0
   -5.2500   -1.2990    0.0000 C   0  0  0  0  0  0  0  0  0  0  0  0
   -6.0000    0.0000    0.0000 C   0  0  0  0  0  0  0  0  0  0  0  0
   -7.5000    0.0000    0.0000 C   0  0  0  0  0  0  0  0  0  0  0  0
   -8.2500   -1.2990    0.0000 C   0  0  0  0  0  0  0  0  0  0  0  0
   -7.5000   -2.5981    0.0000 C   0  0  0  0  0  0  0  0  0  0  0  0
   -6.0000   -2.5981    0.0000 C   0  0  0  0  0  0  0  0  0  0  0  0
   -3.7500    1.2990    0.0000 C   0  0  0  0  0  0  0  0  0  0  0  0
   -3.0000    2.5981    0.0000 C   0  0  0  0  0  0  0  0  0  0  0  0
   -1.5000    2.5981    0.0000 N   0  0  0  0  0  0  0  0  0  0  0  0
   -0.7500    1.2990    0.0000 C   0  0  0  0  0  0  0  0  0  0  0  0
    0.7500    1.2990    0.0000 C   0  0  0  0  0  0  0  0  0  0  0  0
  1  2  1  0
  2  3  2  0
  3  4  1  0
  4  5  2  0
  5  6  1  0
  6  7  1  0
  7  8  1  0
  8  9  2  0
  9 10  1  0
 10 11  2  0
 11 12  1  0
 12 13  2  0
  6 14  2  0
 14 15  1  0
 15 16  2  0
 16 17  1  0
 17 18  2  0
 18  2  1  0
 17  5  1  0
 13  8  1  0
M  END
>  <Compound_ID>  (485) 
CHEMBL4073635

>  <Molecule Name>  (485) 
nan

>  <Molecular Weight>  (485) 
299.17

>  <AlogP>  (485) 
4.74

>  <Smiles>  (485) 
Brc1ccc2c(Nc3ccccc3)ccnc2c1

>  <Standard Type>  (485) 
IC50

>  <Standard Relation>  (485) 
'='

>  <Standard Units>  (485) 
nM

>  <Standard Value>  (485) 
65700.0

>  <Assay ChEMBL ID>  (485) 
CHEMBL4026782

>  <Assay Description>  (485) 
Inhibition of human wild type ALK using YRRAAVPPSPSLSRHSSPHQ(pS)EDEEE as substrate preincubated for 20 mins followed by [gamma-33P]-ATP addition after 2 hrs by filter binding assay

>  <BAO Format ID>  (485) 
BAO_0000357

>  <BAO Label>  (485) 
single protein format

>  <Assay Organism>  (485) 
Homo sapiens

>  <Target ChEMBL ID>  (485) 
CHEMBL4247

>  <Target Name>  (485) 
ALK tyrosine kinase receptor

>  <Target Organism>  (485) 
Homo sapiens

>  <Target Type>  (485) 
SINGLE PROTEIN

>  <Document ChEMBL ID>  (485) 
CHEMBL4024756

>  <Source Description>  (485) 
Scientific Literature

>  <Document Journal>  (485) 
J Med Chem

>  <Document Year>  (485) 
2017.0

>  <Active>  (485) 
0.0

>  <bits>  (485) 
<rdkit.DataStructs.cDataStructs.ExplicitBitVect object at 0x000002422C1B9690>

>  <Group>  (485) 
G2

$$$$

     RDKit          2D

 34 38  0  0  0  0  0  0  0  0999 V2000
   -4.0819    0.6918    0.0000 C   0  0  0  0  0  0  0  0  0  0  0  0
   -2.9672   -0.3119    0.0000 N   0  0  0  0  0  0  0  0  0  0  0  0
   -3.1240   -1.8037    0.0000 C   0  0  0  0  0  0  0  0  0  0  0  0
   -1.7537   -2.4138    0.0000 C   0  0  0  0  0  0  0  0  0  0  0  0
   -1.4418   -3.8810    0.0000 C   0  0  0  0  0  0  0  0  0  0  0  0
   -2.5565   -4.8847    0.0000 C   0  0  0  0  0  0  0  0  0  0  0  0
   -4.0238   -4.5728    0.0000 C   0  0  0  0  0  0  0  0  0  0  0  0
   -4.6339   -3.2025    0.0000 O   0  0  0  0  0  0  0  0  0  0  0  0
   -4.7738   -5.8718    0.0000 N   0  0  0  0  0  0  0  0  0  0  0  0
   -3.7701   -6.9866    0.0000 N   0  0  0  0  0  0  0  0  0  0  0  0
   -2.3998   -6.3765    0.0000 C   0  0  0  0  0  0  0  0  0  0  0  0
   -1.1007   -7.1265    0.0000 C   0  0  0  0  0  0  0  0  0  0  0  0
    0.2696   -6.5164    0.0000 N   0  0  0  0  0  0  0  0  0  0  0  0
    1.2733   -7.6311    0.0000 C   0  0  0  0  0  0  0  0  0  0  0  0
    2.7651   -7.4743    0.0000 C   0  0  0  0  0  0  0  0  0  0  0  0
    4.2569   -7.3175    0.0000 F   0  0  0  0  0  0  0  0  0  0  0  0
    2.9219   -8.9661    0.0000 F   0  0  0  0  0  0  0  0  0  0  0  0
    2.6083   -5.9825    0.0000 F   0  0  0  0  0  0  0  0  0  0  0  0
    0.5233   -8.9301    0.0000 C   0  0  0  0  0  0  0  0  0  0  0  0
   -0.9439   -8.6182    0.0000 S   0  0  0  0  0  0  0  0  0  0  0  0
   -0.7500   -1.2990    0.0000 C   0  0  0  0  0  0  0  0  0  0  0  0
    0.7500   -1.2990    0.0000 C   0  0  0  0  0  0  0  0  0  0  0  0
    1.5000   -2.5981    0.0000 O   0  0  0  0  0  0  0  0  0  0  0  0
    3.0000   -2.5981    0.0000 C   0  0  0  0  0  0  0  0  0  0  0  0
    3.7500   -3.8971    0.0000 C   0  0  0  0  0  0  0  0  0  0  0  0
    3.0000   -5.1962    0.0000 C   0  0  0  0  0  0  0  0  0  0  0  0
    3.7500   -6.4952    0.0000 C   0  0  0  0  0  0  0  0  0  0  0  0
    5.2500   -6.4952    0.0000 C   0  0  0  0  0  0  0  0  0  0  0  0
    6.0000   -5.1962    0.0000 C   0  0  0  0  0  0  0  0  0  0  0  0
    5.2500   -3.8971    0.0000 C   0  0  0  0  0  0  0  0  0  0  0  0
    1.5000    0.0000    0.0000 C   0  0  0  0  0  0  0  0  0  0  0  0
    0.7500    1.2990    0.0000 C   0  0  0  0  0  0  0  0  0  0  0  0
   -0.7500    1.2990    0.0000 C   0  0  0  0  0  0  0  0  0  0  0  0
   -1.5000    0.0000    0.0000 C   0  0  0  0  0  0  0  0  0  0  0  0
  1  2  1  0
  2  3  1  0
  3  4  2  0
  4  5  1  0
  5  6  2  0
  6  7  1  0
  7  8  2  0
  7  9  1  0
  9 10  1  0
 10 11  2  0
 11 12  1  0
 12 13  2  0
 13 14  1  0
 14 15  1  0
 15 16  1  0
 15 17  1  0
 15 18  1  0
 14 19  2  0
 19 20  1  0
  4 21  1  0
 21 22  2  0
 22 23  1  0
 23 24  1  0
 24 25  1  0
 25 26  2  0
 26 27  1  0
 27 28  2  0
 28 29  1  0
 29 30  2  0
 22 31  1  0
 31 32  2  0
 32 33  1  0
 33 34  2  0
 34  2  1  0
 11  6  1  0
 20 12  1  0
 34 21  1  0
 30 25  1  0
M  END
>  <Compound_ID>  (486) 
CHEMBL1922977

>  <Molecule Name>  (486) 
nan

>  <Molecular Weight>  (486) 
482.49

>  <AlogP>  (486) 
5.15

>  <Smiles>  (486) 
Cn1cc(/C=C2\C(=O)NN=C2c2nc(C(F)(F)F)cs2)c2c(OCc3ccccc3)cccc21

>  <Standard Type>  (486) 
IC50

>  <Standard Relation>  (486) 
'='

>  <Standard Units>  (486) 
nM

>  <Standard Value>  (486) 
10000.0

>  <Assay ChEMBL ID>  (486) 
CHEMBL1925015

>  <Assay Description>  (486) 
Inhibition of ALK

>  <BAO Format ID>  (486) 
BAO_0000357

>  <BAO Label>  (486) 
single protein format

>  <Assay Organism>  (486) 
None

>  <Target ChEMBL ID>  (486) 
CHEMBL4247

>  <Target Name>  (486) 
ALK tyrosine kinase receptor

>  <Target Organism>  (486) 
Homo sapiens

>  <Target Type>  (486) 
SINGLE PROTEIN

>  <Document ChEMBL ID>  (486) 
CHEMBL1921676

>  <Source Description>  (486) 
Scientific Literature

>  <Document Journal>  (486) 
Bioorg Med Chem Lett

>  <Document Year>  (486) 
2011.0

>  <Active>  (486) 
0.0

>  <bits>  (486) 
<rdkit.DataStructs.cDataStructs.ExplicitBitVect object at 0x000002422C1B9930>

>  <Group>  (486) 
G2

$$$$

     RDKit          2D

 19 21  0  0  0  0  0  0  0  0999 V2000
    3.0000    0.0000    0.0000 C   0  0  0  0  0  0  0  0  0  0  0  0
    1.5000    0.0000    0.0000 C   0  0  0  0  0  0  0  0  0  0  0  0
    0.7500   -1.2990    0.0000 C   0  0  0  0  0  0  0  0  0  0  0  0
   -0.7500   -1.2990    0.0000 C   0  0  0  0  0  0  0  0  0  0  0  0
   -1.5000   -2.5981    0.0000 O   0  0  0  0  0  0  0  0  0  0  0  0
   -1.5000    0.0000    0.0000 C   0  0  0  0  0  0  0  0  0  0  0  0
   -0.7500    1.2990    0.0000 C   0  0  0  0  0  0  0  0  0  0  0  0
   -1.5000    2.5981    0.0000 O   0  0  0  0  0  0  0  0  0  0  0  0
   -0.7500    3.8971    0.0000 C   0  0  0  0  0  0  0  0  0  0  0  0
   -1.5000    5.1962    0.0000 C   0  0  0  0  0  0  0  0  0  0  0  0
   -0.7500    6.4952    0.0000 C   0  0  0  0  0  0  0  0  0  0  0  0
   -1.5000    7.7942    0.0000 O   0  0  0  0  0  0  0  0  0  0  0  0
    0.7500    6.4952    0.0000 C   0  0  0  0  0  0  0  0  0  0  0  0
    1.5000    5.1962    0.0000 C   0  0  0  0  0  0  0  0  0  0  0  0
    3.0000    5.1962    0.0000 O   0  0  0  0  0  0  0  0  0  0  0  0
    0.7500    3.8971    0.0000 C   0  0  0  0  0  0  0  0  0  0  0  0
    1.5000    2.5981    0.0000 C   0  0  0  0  0  0  0  0  0  0  0  0
    3.0000    2.5981    0.0000 O   0  0  0  0  0  0  0  0  0  0  0  0
    0.7500    1.2990    0.0000 C   0  0  0  0  0  0  0  0  0  0  0  0
  1  2  1  0
  2  3  2  0
  3  4  1  0
  4  5  1  0
  4  6  2  0
  6  7  1  0
  7  8  1  0
  8  9  1  0
  9 10  2  0
 10 11  1  0
 11 12  1  0
 11 13  2  0
 13 14  1  0
 14 15  1  0
 14 16  2  0
 16 17  1  0
 17 18  2  0
 17 19  1  0
 19  2  1  0
 19  7  2  0
 16  9  1  0
M  END
>  <Compound_ID>  (487) 
CHEMBL466154

>  <Molecule Name>  (487) 
NORLICHEXANTHONE

>  <Molecular Weight>  (487) 
258.23

>  <AlogP>  (487) 
2.37

>  <Smiles>  (487) 
Cc1cc(O)cc2oc3cc(O)cc(O)c3c(=O)c12

>  <Standard Type>  (487) 
IC50

>  <Standard Relation>  (487) 
'='

>  <Standard Units>  (487) 
nM

>  <Standard Value>  (487) 
41300.0

>  <Assay ChEMBL ID>  (487) 
CHEMBL1816863

>  <Assay Description>  (487) 
Inhibition of recombinant ALK assessed as 33Pi incorporation after 60 mins by scintillation counting

>  <BAO Format ID>  (487) 
BAO_0000357

>  <BAO Label>  (487) 
single protein format

>  <Assay Organism>  (487) 
None

>  <Target ChEMBL ID>  (487) 
CHEMBL4247

>  <Target Name>  (487) 
ALK tyrosine kinase receptor

>  <Target Organism>  (487) 
Homo sapiens

>  <Target Type>  (487) 
SINGLE PROTEIN

>  <Document ChEMBL ID>  (487) 
CHEMBL1811781

>  <Source Description>  (487) 
Scientific Literature

>  <Document Journal>  (487) 
Bioorg Med Chem

>  <Document Year>  (487) 
2011.0

>  <Active>  (487) 
0.0

>  <bits>  (487) 
<rdkit.DataStructs.cDataStructs.ExplicitBitVect object at 0x000002422C1B9850>

>  <Group>  (487) 
G2

$$$$

     RDKit          2D

 33 36  0  0  0  0  0  0  0  0999 V2000
    5.2500   -1.2990    0.0000 C   0  0  0  0  0  0  0  0  0  0  0  0
    3.7500   -1.2990    0.0000 N   0  0  0  0  0  0  0  0  0  0  0  0
    3.0000   -2.5981    0.0000 C   0  0  0  0  0  0  0  0  0  0  0  0
    3.0000    0.0000    0.0000 C   0  0  0  0  0  0  0  0  0  0  0  0
    3.7500    1.2990    0.0000 O   0  0  0  0  0  0  0  0  0  0  0  0
    1.5000    0.0000    0.0000 C   0  0  0  0  0  0  0  0  0  0  0  0
    0.7500   -1.2990    0.0000 C   0  0  0  0  0  0  0  0  0  0  0  0
   -0.7500   -1.2990    0.0000 C   0  0  0  0  0  0  0  0  0  0  0  0
   -1.5000    0.0000    0.0000 C   0  0  0  0  0  0  0  0  0  0  0  0
   -2.9672    0.3119    0.0000 C   0  0  0  0  0  0  0  0  0  0  0  0
   -3.1240    1.8037    0.0000 C   0  0  0  0  0  0  0  0  0  0  0  0
   -1.7537    2.4138    0.0000 N   0  0  0  0  0  0  0  0  0  0  0  0
   -0.7500    1.2990    0.0000 C   0  0  0  0  0  0  0  0  0  0  0  0
    0.7500    1.2990    0.0000 C   0  0  0  0  0  0  0  0  0  0  0  0
   -4.4943    2.4138    0.0000 C   0  0  0  0  0  0  0  0  0  0  0  0
   -5.5733    3.4557    0.0000 C   0  0  0  0  0  0  0  0  0  0  0  0
   -3.6555    3.6573    0.0000 C   0  0  0  0  0  0  0  0  0  0  0  0
   -5.7079    1.5321    0.0000 C   0  0  0  0  0  0  0  0  0  0  0  0
   -7.0782    2.1422    0.0000 C   0  0  0  0  0  0  0  0  0  0  0  0
   -8.2917    1.2605    0.0000 C   0  0  0  0  0  0  0  0  0  0  0  0
   -9.6620    1.8706    0.0000 O   0  0  0  0  0  0  0  0  0  0  0  0
   -9.8188    3.3624    0.0000 C   0  0  0  0  0  0  0  0  0  0  0  0
  -11.1891    3.9725    0.0000 C   0  0  0  0  0  0  0  0  0  0  0  0
  -12.4027    3.0908    0.0000 O   0  0  0  0  0  0  0  0  0  0  0  0
  -11.3459    5.4643    0.0000 C   0  0  0  0  0  0  0  0  0  0  0  0
  -10.1324    6.3460    0.0000 O   0  0  0  0  0  0  0  0  0  0  0  0
  -12.7162    6.0744    0.0000 C   0  0  0  0  0  0  0  0  0  0  0  0
  -12.8730    7.5662    0.0000 O   0  0  0  0  0  0  0  0  0  0  0  0
   -8.1349   -0.2313    0.0000 C   0  0  0  0  0  0  0  0  0  0  0  0
   -6.7646   -0.8414    0.0000 C   0  0  0  0  0  0  0  0  0  0  0  0
   -5.5511    0.0403    0.0000 C   0  0  0  0  0  0  0  0  0  0  0  0
   -4.1807   -0.5698    0.0000 C   0  0  0  0  0  0  0  0  0  0  0  0
   -4.0240   -2.0616    0.0000 O   0  0  0  0  0  0  0  0  0  0  0  0
  1  2  1  0
  2  3  1  0
  2  4  1  0
  4  5  2  0
  4  6  1  0
  6  7  2  0
  7  8  1  0
  8  9  2  0
  9 10  1  0
 10 11  2  0
 11 12  1  0
 12 13  1  0
 13 14  2  0
 11 15  1  0
 15 16  1  0
 15 17  1  0
 15 18  1  0
 18 19  2  0
 19 20  1  0
 20 21  1  0
 21 22  1  0
 22 23  1  0
 23 24  1  1
 23 25  1  0
 25 26  1  1
 25 27  1  0
 27 28  1  0
 20 29  2  0
 29 30  1  0
 30 31  2  0
 31 32  1  0
 32 33  2  0
 14  6  1  0
 31 18  1  0
 13  9  1  0
 32 10  1  0
M  END
>  <Compound_ID>  (488) 
CHEMBL4110334

>  <Molecule Name>  (488) 
nan

>  <Molecular Weight>  (488) 
452.51

>  <AlogP>  (488) 
1.83

>  <Smiles>  (488) 
CN(C)C(=O)c1ccc2c3c([nH]c2c1)C(C)(C)c1cc(OC[C@@H](O)[C@H](O)CO)ccc1C3=O

>  <Standard Type>  (488) 
IC50

>  <Standard Relation>  (488) 
'='

>  <Standard Units>  (488) 
nM

>  <Standard Value>  (488) 
12970.4

>  <Assay ChEMBL ID>  (488) 
CHEMBL3887074

>  <Assay Description>  (488) 
Inhibition Assay: ALK-inhibiting activity was measured by following an activity of inhibiting phosphorylation by biotinylated peptide (EGPWLEEEEEAYGWMDF). For the detection of phosphorylation of the biotinylated peptide, time-resolved fluorescence measurement was performed using an anti-phosphorylated tyrosine antibody labeled with europium cryptate and streptavidin conjugated to XL665, i.e., an allophycocyanin derivative.

>  <BAO Format ID>  (488) 
BAO_0000357

>  <BAO Label>  (488) 
single protein format

>  <Assay Organism>  (488) 
Homo sapiens

>  <Target ChEMBL ID>  (488) 
CHEMBL4247

>  <Target Name>  (488) 
ALK tyrosine kinase receptor

>  <Target Organism>  (488) 
Homo sapiens

>  <Target Type>  (488) 
SINGLE PROTEIN

>  <Document ChEMBL ID>  (488) 
CHEMBL3886150

>  <Source Description>  (488) 
BindingDB Database

>  <Document Journal>  (488) 
nan

>  <Document Year>  (488) 
2015.0

>  <Active>  (488) 
0.0

>  <bits>  (488) 
<rdkit.DataStructs.cDataStructs.ExplicitBitVect object at 0x000002422C1B95B0>

>  <Group>  (488) 
G2

$$$$

     RDKit          2D

 38 42  0  0  0  0  0  0  0  0999 V2000
    3.7500   -1.2990    0.0000 C   0  0  0  0  0  0  0  0  0  0  0  0
    3.0000    0.0000    0.0000 O   0  0  0  0  0  0  0  0  0  0  0  0
    1.5000    0.0000    0.0000 C   0  0  0  0  0  0  0  0  0  0  0  0
    0.7500   -1.2990    0.0000 C   0  0  0  0  0  0  0  0  0  0  0  0
   -0.7500   -1.2990    0.0000 C   0  0  0  0  0  0  0  0  0  0  0  0
   -1.5000   -2.5981    0.0000 C   0  0  0  0  0  0  0  0  0  0  0  0
   -1.5000    0.0000    0.0000 C   0  0  0  0  0  0  0  0  0  0  0  0
   -0.7500    1.2990    0.0000 C   0  0  0  0  0  0  0  0  0  0  0  0
   -1.5000    2.5981    0.0000 C   0  0  0  0  0  0  0  0  0  0  0  0
   -2.9918    2.7549    0.0000 N   0  0  0  0  0  0  0  0  0  0  0  0
   -3.3037    4.2221    0.0000 N   0  0  0  0  0  0  0  0  0  0  0  0
   -4.6740    4.8322    0.0000 C   0  0  0  0  0  0  0  0  0  0  0  0
   -4.8308    6.3240    0.0000 C   0  0  0  0  0  0  0  0  0  0  0  0
   -4.9876    7.8158    0.0000 N   0  0  0  0  0  0  0  0  0  0  0  0
   -2.0046    4.9721    0.0000 C   0  0  0  0  0  0  0  0  0  0  0  0
   -0.8899    3.9684    0.0000 C   0  0  0  0  0  0  0  0  0  0  0  0
    0.5773    4.2803    0.0000 C   0  0  0  0  0  0  0  0  0  0  0  0
    1.5810    3.1655    0.0000 C   0  0  0  0  0  0  0  0  0  0  0  0
    3.0482    3.4774    0.0000 C   0  0  0  0  0  0  0  0  0  0  0  0
    4.0519    2.3627    0.0000 N   0  0  0  0  0  0  0  0  0  0  0  0
    5.5192    2.6746    0.0000 C   0  0  0  0  0  0  0  0  0  0  0  0
    6.5229    1.5598    0.0000 C   0  0  0  0  0  0  0  0  0  0  0  0
    7.9901    1.8717    0.0000 N   0  0  0  0  0  0  0  0  0  0  0  0
    8.9938    0.7570    0.0000 C   0  0  0  0  0  0  0  0  0  0  0  0
   10.4610    1.0689    0.0000 C   0  0  0  0  0  0  0  0  0  0  0  0
   10.9245    2.4954    0.0000 O   0  0  0  0  0  0  0  0  0  0  0  0
    9.9208    3.6102    0.0000 C   0  0  0  0  0  0  0  0  0  0  0  0
    8.4536    3.2983    0.0000 C   0  0  0  0  0  0  0  0  0  0  0  0
    3.5118    4.9040    0.0000 N   0  0  0  0  0  0  0  0  0  0  0  0
    2.5081    6.0187    0.0000 C   0  0  0  0  0  0  0  0  0  0  0  0
    2.9716    7.4453    0.0000 C   0  0  0  0  0  0  0  0  0  0  0  0
    4.4388    7.7572    0.0000 C   0  0  0  0  0  0  0  0  0  0  0  0
    4.9023    9.1838    0.0000 C   0  0  0  0  0  0  0  0  0  0  0  0
    3.8986   10.2985    0.0000 C   0  0  0  0  0  0  0  0  0  0  0  0
    2.4314    9.9866    0.0000 N   0  0  0  0  0  0  0  0  0  0  0  0
    1.9679    8.5600    0.0000 C   0  0  0  0  0  0  0  0  0  0  0  0
    1.0409    5.7068    0.0000 N   0  0  0  0  0  0  0  0  0  0  0  0
    0.7500    1.2990    0.0000 C   0  0  0  0  0  0  0  0  0  0  0  0
  1  2  1  0
  2  3  1  0
  3  4  2  0
  4  5  1  0
  5  6  1  0
  5  7  2  0
  7  8  1  0
  8  9  1  0
  9 10  2  0
 10 11  1  0
 11 12  1  0
 12 13  1  0
 13 14  3  0
 11 15  1  0
 15 16  2  0
 16 17  1  0
 17 18  2  0
 18 19  1  0
 19 20  1  0
 20 21  1  0
 21 22  1  0
 22 23  1  0
 23 24  1  0
 24 25  1  0
 25 26  1  0
 26 27  1  0
 27 28  1  0
 19 29  2  0
 29 30  1  0
 30 31  1  0
 31 32  2  0
 32 33  1  0
 33 34  2  0
 34 35  1  0
 35 36  2  0
 30 37  2  0
  8 38  2  0
 38  3  1  0
 16  9  1  0
 37 17  1  0
 28 23  1  0
 36 31  1  0
M  END
>  <Compound_ID>  (489) 
CHEMBL3397287

>  <Molecule Name>  (489) 
nan

>  <Molecular Weight>  (489) 
510.6

>  <AlogP>  (489) 
3.65

>  <Smiles>  (489) 
COc1cc(C)cc(-c2nn(CC#N)cc2-c2cc(NCCN3CCOCC3)nc(-c3cccnc3)n2)c1

>  <Standard Type>  (489) 
IC50

>  <Standard Relation>  (489) 
'='

>  <Standard Units>  (489) 
nM

>  <Standard Value>  (489) 
10200.0

>  <Assay ChEMBL ID>  (489) 
CHEMBL3399441

>  <Assay Description>  (489) 
Inhibition of ALK (unknown origin) incubated for 20 mins followed by [33P]ATP addition measured after 120 mins by HotSpot assay

>  <BAO Format ID>  (489) 
BAO_0000357

>  <BAO Label>  (489) 
single protein format

>  <Assay Organism>  (489) 
Homo sapiens

>  <Target ChEMBL ID>  (489) 
CHEMBL4247

>  <Target Name>  (489) 
ALK tyrosine kinase receptor

>  <Target Organism>  (489) 
Homo sapiens

>  <Target Type>  (489) 
SINGLE PROTEIN

>  <Document ChEMBL ID>  (489) 
CHEMBL3396973

>  <Source Description>  (489) 
Scientific Literature

>  <Document Journal>  (489) 
Eur J Med Chem

>  <Document Year>  (489) 
2015.0

>  <Active>  (489) 
0.0

>  <bits>  (489) 
<rdkit.DataStructs.cDataStructs.ExplicitBitVect object at 0x000002422C1BBE60>

>  <Group>  (489) 
G2

$$$$

     RDKit          2D

 37 41  0  0  0  0  0  0  0  0999 V2000
    2.6491   -3.5623    0.0000 C   0  0  0  0  0  0  0  0  0  0  0  0
    1.5000   -2.5981    0.0000 C   0  0  0  0  0  0  0  0  0  0  0  0
    2.6491   -1.6339    0.0000 C   0  0  0  0  0  0  0  0  0  0  0  0
    0.7500   -1.2990    0.0000 C   0  0  0  0  0  0  0  0  0  0  0  0
    1.5000    0.0000    0.0000 C   0  0  0  0  0  0  0  0  0  0  0  0
    0.7500    1.2990    0.0000 C   0  0  0  0  0  0  0  0  0  0  0  0
    1.5000    2.5981    0.0000 O   0  0  0  0  0  0  0  0  0  0  0  0
    3.0000    2.5981    0.0000 C   0  0  0  0  0  0  0  0  0  0  0  0
    3.7500    3.8971    0.0000 C   0  0  0  0  0  0  0  0  0  0  0  0
    3.0000    5.1962    0.0000 O   0  0  0  0  0  0  0  0  0  0  0  0
    5.2500    3.8971    0.0000 C   0  0  0  0  0  0  0  0  0  0  0  0
    6.0000    5.1962    0.0000 O   0  0  0  0  0  0  0  0  0  0  0  0
   -0.7500    1.2990    0.0000 C   0  0  0  0  0  0  0  0  0  0  0  0
   -1.5000    0.0000    0.0000 C   0  0  0  0  0  0  0  0  0  0  0  0
   -0.7500   -1.2990    0.0000 C   0  0  0  0  0  0  0  0  0  0  0  0
   -1.5000   -2.5981    0.0000 C   0  0  0  0  0  0  0  0  0  0  0  0
   -3.0000   -2.5981    0.0000 O   0  0  0  0  0  0  0  0  0  0  0  0
   -0.7500   -3.8971    0.0000 C   0  0  0  0  0  0  0  0  0  0  0  0
    0.7500   -3.8971    0.0000 C   0  0  0  0  0  0  0  0  0  0  0  0
    1.2135   -5.3237    0.0000 O   0  0  0  0  0  0  0  0  0  0  0  0
    0.0000   -6.2054    0.0000 C   0  0  0  0  0  0  0  0  0  0  0  0
   -0.1568   -7.6972    0.0000 C   0  0  0  0  0  0  0  0  0  0  0  0
   -1.5271   -8.3073    0.0000 C   0  0  0  0  0  0  0  0  0  0  0  0
   -1.6839   -9.7990    0.0000 O   0  0  0  0  0  0  0  0  0  0  0  0
   -3.0542  -10.4092    0.0000 C   0  0  0  0  0  0  0  0  0  0  0  0
   -3.2110  -11.9009    0.0000 C   0  0  0  0  0  0  0  0  0  0  0  0
   -1.9975  -12.7826    0.0000 O   0  0  0  0  0  0  0  0  0  0  0  0
   -4.5813  -12.5110    0.0000 N   0  0  0  0  0  0  0  0  0  0  0  0
   -4.7381  -14.0028    0.0000 C   0  0  0  0  0  0  0  0  0  0  0  0
   -6.1084  -14.6129    0.0000 C   0  0  0  0  0  0  0  0  0  0  0  0
   -6.2652  -16.1047    0.0000 C   0  0  0  0  0  0  0  0  0  0  0  0
   -5.0517  -16.9864    0.0000 C   0  0  0  0  0  0  0  0  0  0  0  0
   -3.6814  -16.3763    0.0000 C   0  0  0  0  0  0  0  0  0  0  0  0
   -3.5246  -14.8845    0.0000 C   0  0  0  0  0  0  0  0  0  0  0  0
   -2.7406   -7.4256    0.0000 C   0  0  0  0  0  0  0  0  0  0  0  0
   -2.5838   -5.9338    0.0000 C   0  0  0  0  0  0  0  0  0  0  0  0
   -1.2135   -5.3237    0.0000 C   0  0  0  0  0  0  0  0  0  0  0  0
  1  2  1  0
  2  3  1  0
  2  4  1  0
  4  5  2  0
  5  6  1  0
  6  7  1  0
  7  8  1  0
  8  9  1  0
  9 10  1  6
  9 11  1  0
 11 12  1  0
  6 13  2  0
 13 14  1  0
 14 15  2  0
 15 16  1  0
 16 17  2  0
 16 18  1  0
 18 19  2  0
 19 20  1  0
 20 21  1  0
 21 22  2  0
 22 23  1  0
 23 24  1  0
 24 25  1  0
 25 26  1  0
 26 27  2  0
 26 28  1  0
 28 29  1  0
 29 30  2  0
 30 31  1  0
 31 32  2  0
 32 33  1  0
 33 34  2  0
 23 35  2  0
 35 36  1  0
 36 37  2  0
 19  2  1  0
 37 21  1  0
 15  4  1  0
 37 18  1  0
 34 29  1  0
M  END
>  <Compound_ID>  (490) 
CHEMBL4111292

>  <Molecule Name>  (490) 
nan

>  <Molecular Weight>  (490) 
501.54

>  <AlogP>  (490) 
4.05

>  <Smiles>  (490) 
CC1(C)c2cc(OC[C@H](O)CO)ccc2C(=O)c2c1oc1cc(OCC(=O)Nc3ccccc3)ccc21

>  <Standard Type>  (490) 
IC50

>  <Standard Relation>  (490) 
'='

>  <Standard Units>  (490) 
nM

>  <Standard Value>  (490) 
17464.1

>  <Assay ChEMBL ID>  (490) 
CHEMBL3887074

>  <Assay Description>  (490) 
Inhibition Assay: ALK-inhibiting activity was measured by following an activity of inhibiting phosphorylation by biotinylated peptide (EGPWLEEEEEAYGWMDF). For the detection of phosphorylation of the biotinylated peptide, time-resolved fluorescence measurement was performed using an anti-phosphorylated tyrosine antibody labeled with europium cryptate and streptavidin conjugated to XL665, i.e., an allophycocyanin derivative.

>  <BAO Format ID>  (490) 
BAO_0000357

>  <BAO Label>  (490) 
single protein format

>  <Assay Organism>  (490) 
Homo sapiens

>  <Target ChEMBL ID>  (490) 
CHEMBL4247

>  <Target Name>  (490) 
ALK tyrosine kinase receptor

>  <Target Organism>  (490) 
Homo sapiens

>  <Target Type>  (490) 
SINGLE PROTEIN

>  <Document ChEMBL ID>  (490) 
CHEMBL3886150

>  <Source Description>  (490) 
BindingDB Database

>  <Document Journal>  (490) 
nan

>  <Document Year>  (490) 
2015.0

>  <Active>  (490) 
0.0

>  <bits>  (490) 
<rdkit.DataStructs.cDataStructs.ExplicitBitVect object at 0x000002422C1BA500>

>  <Group>  (490) 
G2

$$$$

     RDKit          2D

 35 39  0  0  0  0  0  0  0  0999 V2000
   -5.9821    8.7029    0.0000 C   0  0  0  0  0  0  0  0  0  0  0  0
   -4.5556    9.1664    0.0000 O   0  0  0  0  0  0  0  0  0  0  0  0
   -4.2437   10.6337    0.0000 C   0  0  0  0  0  0  0  0  0  0  0  0
   -5.3584   11.6374    0.0000 C   0  0  0  0  0  0  0  0  0  0  0  0
   -5.0465   13.1046    0.0000 C   0  0  0  0  0  0  0  0  0  0  0  0
   -6.1613   14.1083    0.0000 C   0  0  0  0  0  0  0  0  0  0  0  0
   -5.8494   15.5755    0.0000 N   0  0  0  0  0  0  0  0  0  0  0  0
   -4.4228   16.0390    0.0000 C   0  0  0  0  0  0  0  0  0  0  0  0
   -4.1109   17.5063    0.0000 C   0  0  0  0  0  0  0  0  0  0  0  0
   -5.2256   18.5099    0.0000 N   0  0  0  0  0  0  0  0  0  0  0  0
   -4.9138   19.9772    0.0000 C   0  0  0  0  0  0  0  0  0  0  0  0
   -6.6522   18.0464    0.0000 C   0  0  0  0  0  0  0  0  0  0  0  0
   -6.9641   16.5792    0.0000 C   0  0  0  0  0  0  0  0  0  0  0  0
   -3.6200   13.5681    0.0000 C   0  0  0  0  0  0  0  0  0  0  0  0
   -2.5052   12.5644    0.0000 C   0  0  0  0  0  0  0  0  0  0  0  0
   -2.8171   11.0972    0.0000 C   0  0  0  0  0  0  0  0  0  0  0  0
   -1.7024   10.0935    0.0000 N   0  0  0  0  0  0  0  0  0  0  0  0
   -2.0143    8.6263    0.0000 C   0  0  0  0  0  0  0  0  0  0  0  0
   -3.4408    8.1628    0.0000 O   0  0  0  0  0  0  0  0  0  0  0  0
   -0.8995    7.6226    0.0000 C   0  0  0  0  0  0  0  0  0  0  0  0
   -1.2114    6.1554    0.0000 C   0  0  0  0  0  0  0  0  0  0  0  0
   -0.0967    5.1517    0.0000 C   0  0  0  0  0  0  0  0  0  0  0  0
   -0.4086    3.6844    0.0000 C   0  0  0  0  0  0  0  0  0  0  0  0
   -1.8351    3.2209    0.0000 C   0  0  0  0  0  0  0  0  0  0  0  0
   -2.1470    1.7537    0.0000 C   0  0  0  0  0  0  0  0  0  0  0  0
   -1.0323    0.7500    0.0000 C   0  0  0  0  0  0  0  0  0  0  0  0
    0.3943    1.2135    0.0000 C   0  0  0  0  0  0  0  0  0  0  0  0
    0.7062    2.6807    0.0000 C   0  0  0  0  0  0  0  0  0  0  0  0
    1.2760    0.0000    0.0000 O   0  0  0  0  0  0  0  0  0  0  0  0
    0.3943   -1.2135    0.0000 C   0  0  0  0  0  0  0  0  0  0  0  0
   -1.0323   -0.7500    0.0000 O   0  0  0  0  0  0  0  0  0  0  0  0
    1.3299    5.6152    0.0000 C   0  0  0  0  0  0  0  0  0  0  0  0
    1.6418    7.0824    0.0000 N   0  0  0  0  0  0  0  0  0  0  0  0
    0.5271    8.0861    0.0000 C   0  0  0  0  0  0  0  0  0  0  0  0
    0.8389    9.5533    0.0000 O   0  0  0  0  0  0  0  0  0  0  0  0
  1  2  1  0
  2  3  1  0
  3  4  2  0
  4  5  1  0
  5  6  1  0
  6  7  1  0
  7  8  1  0
  8  9  1  0
  9 10  1  0
 10 11  1  0
 10 12  1  0
 12 13  1  0
  5 14  2  0
 14 15  1  0
 15 16  2  0
 16 17  1  0
 17 18  1  0
 18 19  2  0
 18 20  1  0
 20 21  2  0
 21 22  1  0
 22 23  1  0
 23 24  2  0
 24 25  1  0
 25 26  2  0
 26 27  1  0
 27 28  2  0
 27 29  1  0
 29 30  1  0
 30 31  1  0
 22 32  2  0
 32 33  1  0
 33 34  2  0
 34 35  1  0
 16  3  1  0
 34 20  1  0
 13  7  1  0
 28 23  1  0
 31 26  1  0
M  END
>  <Compound_ID>  (491) 
CHEMBL201639

>  <Molecule Name>  (491) 
nan

>  <Molecular Weight>  (491) 
476.53

>  <AlogP>  (491) 
3.19

>  <Smiles>  (491) 
COc1cc(CN2CCN(C)CC2)ccc1NC(=O)c1cc(-c2ccc3c(c2)OCO3)cnc1O

>  <Standard Type>  (491) 
IC50

>  <Standard Relation>  (491) 
'='

>  <Standard Units>  (491) 
nM

>  <Standard Value>  (491) 
13800.0

>  <Assay ChEMBL ID>  (491) 
CHEMBL867052

>  <Assay Description>  (491) 
Inhibitory activity against ALK

>  <BAO Format ID>  (491) 
BAO_0000357

>  <BAO Label>  (491) 
single protein format

>  <Assay Organism>  (491) 
None

>  <Target ChEMBL ID>  (491) 
CHEMBL4247

>  <Target Name>  (491) 
ALK tyrosine kinase receptor

>  <Target Organism>  (491) 
Homo sapiens

>  <Target Type>  (491) 
SINGLE PROTEIN

>  <Document ChEMBL ID>  (491) 
CHEMBL1149386

>  <Source Description>  (491) 
Scientific Literature

>  <Document Journal>  (491) 
J Med Chem

>  <Document Year>  (491) 
2006.0

>  <Active>  (491) 
0.0

>  <bits>  (491) 
<rdkit.DataStructs.cDataStructs.ExplicitBitVect object at 0x000002422C1BB760>

>  <Group>  (491) 
G2

$$$$

     RDKit          2D

 38 42  0  0  0  0  0  0  0  0999 V2000
   -2.6401   -3.1891    0.0000 C   0  0  0  0  0  0  0  0  0  0  0  0
   -1.2135   -2.7256    0.0000 N   0  0  0  0  0  0  0  0  0  0  0  0
   -0.0000   -3.6073    0.0000 C   0  0  0  0  0  0  0  0  0  0  0  0
    1.2135   -2.7256    0.0000 C   0  0  0  0  0  0  0  0  0  0  0  0
    0.7500   -1.2990    0.0000 C   0  0  0  0  0  0  0  0  0  0  0  0
    1.5000    0.0000    0.0000 C   0  0  0  0  0  0  0  0  0  0  0  0
    0.7500    1.2990    0.0000 C   0  0  0  0  0  0  0  0  0  0  0  0
   -0.7500    1.2990    0.0000 C   0  0  0  0  0  0  0  0  0  0  0  0
   -1.5000    2.5981    0.0000 C   0  0  0  0  0  0  0  0  0  0  0  0
   -3.0000    2.5981    0.0000 O   0  0  0  0  0  0  0  0  0  0  0  0
   -0.7500    3.8971    0.0000 N   0  0  0  0  0  0  0  0  0  0  0  0
   -1.5000    5.1962    0.0000 C   0  0  0  0  0  0  0  0  0  0  0  0
   -0.7500    6.4952    0.0000 C   0  0  0  0  0  0  0  0  0  0  0  0
   -1.5000    7.7942    0.0000 C   0  0  0  0  0  0  0  0  0  0  0  0
   -3.0000    7.7942    0.0000 C   0  0  0  0  0  0  0  0  0  0  0  0
   -3.7500    6.4952    0.0000 C   0  0  0  0  0  0  0  0  0  0  0  0
   -3.0000    5.1962    0.0000 C   0  0  0  0  0  0  0  0  0  0  0  0
   -1.5000    0.0000    0.0000 C   0  0  0  0  0  0  0  0  0  0  0  0
   -0.7500   -1.2990    0.0000 C   0  0  0  0  0  0  0  0  0  0  0  0
    2.5838   -3.3357    0.0000 C   0  0  0  0  0  0  0  0  0  0  0  0
    3.7974   -2.4540    0.0000 O   0  0  0  0  0  0  0  0  0  0  0  0
    2.7406   -4.8275    0.0000 C   0  0  0  0  0  0  0  0  0  0  0  0
    4.1110   -5.4376    0.0000 C   0  0  0  0  0  0  0  0  0  0  0  0
    4.2677   -6.9294    0.0000 C   0  0  0  0  0  0  0  0  0  0  0  0
    3.0542   -7.8111    0.0000 C   0  0  0  0  0  0  0  0  0  0  0  0
    3.2110   -9.3029    0.0000 O   0  0  0  0  0  0  0  0  0  0  0  0
    1.9975  -10.1845    0.0000 C   0  0  0  0  0  0  0  0  0  0  0  0
    2.1543  -11.6763    0.0000 C   0  0  0  0  0  0  0  0  0  0  0  0
    3.5246  -12.2864    0.0000 O   0  0  0  0  0  0  0  0  0  0  0  0
    0.9408  -12.5580    0.0000 C   0  0  0  0  0  0  0  0  0  0  0  0
   -0.4296  -11.9479    0.0000 O   0  0  0  0  0  0  0  0  0  0  0  0
    1.0975  -14.0498    0.0000 C   0  0  0  0  0  0  0  0  0  0  0  0
   -0.1160  -14.9315    0.0000 O   0  0  0  0  0  0  0  0  0  0  0  0
    1.6839   -7.2010    0.0000 C   0  0  0  0  0  0  0  0  0  0  0  0
    1.5271   -5.7092    0.0000 C   0  0  0  0  0  0  0  0  0  0  0  0
    0.1568   -5.0991    0.0000 C   0  0  0  0  0  0  0  0  0  0  0  0
   -1.3396   -4.9944    0.0000 C   0  0  0  0  0  0  0  0  0  0  0  0
   -0.2061   -6.5545    0.0000 C   0  0  0  0  0  0  0  0  0  0  0  0
  1  2  1  0
  2  3  1  0
  3  4  2  0
  4  5  1  0
  5  6  2  0
  6  7  1  0
  7  8  2  0
  8  9  1  0
  9 10  2  0
  9 11  1  0
 11 12  1  0
 12 13  2  0
 13 14  1  0
 14 15  2  0
 15 16  1  0
 16 17  2  0
  8 18  1  0
 18 19  2  0
  4 20  1  0
 20 21  2  0
 20 22  1  0
 22 23  2  0
 23 24  1  0
 24 25  2  0
 25 26  1  0
 26 27  1  0
 27 28  1  0
 28 29  1  1
 28 30  1  0
 30 31  1  1
 30 32  1  0
 32 33  1  0
 25 34  1  0
 34 35  2  0
 35 36  1  0
 36 37  1  0
 36 38  1  0
 19  2  1  0
 35 22  1  0
 36  3  1  0
 19  5  1  0
 17 12  1  0
M  END
>  <Compound_ID>  (492) 
CHEMBL4108699

>  <Molecule Name>  (492) 
nan

>  <Molecular Weight>  (492) 
514.58

>  <AlogP>  (492) 
3.39

>  <Smiles>  (492) 
Cn1c2c(c3ccc(C(=O)Nc4ccccc4)cc31)C(=O)c1ccc(OC[C@@H](O)[C@H](O)CO)cc1C2(C)C

>  <Standard Type>  (492) 
IC50

>  <Standard Relation>  (492) 
'='

>  <Standard Units>  (492) 
nM

>  <Standard Value>  (492) 
12951.9

>  <Assay ChEMBL ID>  (492) 
CHEMBL3887074

>  <Assay Description>  (492) 
Inhibition Assay: ALK-inhibiting activity was measured by following an activity of inhibiting phosphorylation by biotinylated peptide (EGPWLEEEEEAYGWMDF). For the detection of phosphorylation of the biotinylated peptide, time-resolved fluorescence measurement was performed using an anti-phosphorylated tyrosine antibody labeled with europium cryptate and streptavidin conjugated to XL665, i.e., an allophycocyanin derivative.

>  <BAO Format ID>  (492) 
BAO_0000357

>  <BAO Label>  (492) 
single protein format

>  <Assay Organism>  (492) 
Homo sapiens

>  <Target ChEMBL ID>  (492) 
CHEMBL4247

>  <Target Name>  (492) 
ALK tyrosine kinase receptor

>  <Target Organism>  (492) 
Homo sapiens

>  <Target Type>  (492) 
SINGLE PROTEIN

>  <Document ChEMBL ID>  (492) 
CHEMBL3886150

>  <Source Description>  (492) 
BindingDB Database

>  <Document Journal>  (492) 
nan

>  <Document Year>  (492) 
2015.0

>  <Active>  (492) 
0.0

>  <bits>  (492) 
<rdkit.DataStructs.cDataStructs.ExplicitBitVect object at 0x000002422C1BB530>

>  <Group>  (492) 
G2

$$$$

     RDKit          2D

 28 32  0  0  0  0  0  0  0  0999 V2000
   -2.9520   -4.6564    0.0000 O   0  0  0  0  0  0  0  0  0  0  0  0
   -2.6401   -3.1891    0.0000 N   0  0  0  0  0  0  0  0  0  0  0  0
   -1.2135   -2.7256    0.0000 C   0  0  0  0  0  0  0  0  0  0  0  0
   -0.0000   -3.6073    0.0000 C   0  0  0  0  0  0  0  0  0  0  0  0
    1.2135   -2.7256    0.0000 C   0  0  0  0  0  0  0  0  0  0  0  0
    0.7500   -1.2990    0.0000 C   0  0  0  0  0  0  0  0  0  0  0  0
    1.5000    0.0000    0.0000 C   0  0  0  0  0  0  0  0  0  0  0  0
    0.7500    1.2990    0.0000 C   0  0  0  0  0  0  0  0  0  0  0  0
    1.5000    2.5981    0.0000 C   0  0  0  0  0  0  0  0  0  0  0  0
    0.8899    3.9684    0.0000 N   0  0  0  0  0  0  0  0  0  0  0  0
    2.0046    4.9721    0.0000 C   0  0  0  0  0  0  0  0  0  0  0  0
    1.8478    6.4639    0.0000 C   0  0  0  0  0  0  0  0  0  0  0  0
    3.0613    7.3456    0.0000 C   0  0  0  0  0  0  0  0  0  0  0  0
    2.9046    8.8373    0.0000 C   0  0  0  0  0  0  0  0  0  0  0  0
    1.5342    9.4474    0.0000 N   0  0  0  0  0  0  0  0  0  0  0  0
    0.3207    8.5658    0.0000 C   0  0  0  0  0  0  0  0  0  0  0  0
    0.4775    7.0740    0.0000 C   0  0  0  0  0  0  0  0  0  0  0  0
    3.3037    4.2221    0.0000 N   0  0  0  0  0  0  0  0  0  0  0  0
    2.9918    2.7549    0.0000 C   0  0  0  0  0  0  0  0  0  0  0  0
    3.9955    1.6402    0.0000 C   0  0  0  0  0  0  0  0  0  0  0  0
    3.5320    0.2136    0.0000 C   0  0  0  0  0  0  0  0  0  0  0  0
    4.5356   -0.9012    0.0000 C   0  0  0  0  0  0  0  0  0  0  0  0
    6.0029   -0.5893    0.0000 N   0  0  0  0  0  0  0  0  0  0  0  0
    6.4664    0.8373    0.0000 C   0  0  0  0  0  0  0  0  0  0  0  0
    5.4627    1.9520    0.0000 C   0  0  0  0  0  0  0  0  0  0  0  0
   -0.7500    1.2990    0.0000 C   0  0  0  0  0  0  0  0  0  0  0  0
   -1.5000    0.0000    0.0000 C   0  0  0  0  0  0  0  0  0  0  0  0
   -0.7500   -1.2990    0.0000 C   0  0  0  0  0  0  0  0  0  0  0  0
  1  2  1  0
  2  3  2  3
  3  4  1  0
  4  5  1  0
  5  6  1  0
  6  7  2  0
  7  8  1  0
  8  9  1  0
  9 10  1  0
 10 11  2  0
 11 12  1  0
 12 13  1  0
 13 14  1  0
 14 15  1  0
 15 16  1  0
 16 17  1  0
 11 18  1  0
 18 19  1  0
 19 20  1  0
 20 21  2  0
 21 22  1  0
 22 23  2  0
 23 24  1  0
 24 25  2  0
  8 26  2  0
 26 27  1  0
 27 28  2  0
 28  3  1  0
 28  6  1  0
 19  9  2  0
 25 20  1  0
 17 12  1  0
M  END
>  <Compound_ID>  (493) 
CHEMBL1794071

>  <Molecule Name>  (493) 
nan

>  <Molecular Weight>  (493) 
409.92

>  <AlogP>  (493) 
3.73

>  <Smiles>  (493) 
ON=C1CCc2cc(-c3nc(C4CCNCC4)[nH]c3-c3ccncc3)ccc21

>  <Standard Type>  (493) 
Inhibition

>  <Standard Relation>  (493) 
'='

>  <Standard Units>  (493) 
%

>  <Standard Value>  (493) 
2.45

>  <Assay ChEMBL ID>  (493) 
CHEMBL1962240

>  <Assay Description>  (493) 
GSK_PKIS: ALK mean inhibition at 0.1 uM [Nanosyn]

>  <BAO Format ID>  (493) 
BAO_0000357

>  <BAO Label>  (493) 
single protein format

>  <Assay Organism>  (493) 
None

>  <Target ChEMBL ID>  (493) 
CHEMBL4247

>  <Target Name>  (493) 
ALK tyrosine kinase receptor

>  <Target Organism>  (493) 
Homo sapiens

>  <Target Type>  (493) 
SINGLE PROTEIN

>  <Document ChEMBL ID>  (493) 
CHEMBL1961873

>  <Source Description>  (493) 
GSK Published Kinase Inhibitor Set

>  <Document Journal>  (493) 
nan

>  <Document Year>  (493) 
nan

>  <Active>  (493) 
0.0

>  <bits>  (493) 
<rdkit.DataStructs.cDataStructs.ExplicitBitVect object at 0x000002422C1B9A10>

>  <Group>  (493) 
G2

$$$$

     RDKit          2D

 25 28  0  0  0  0  0  0  0  0999 V2000
   -3.7548   -2.1855    0.0000 C   0  0  0  0  0  0  0  0  0  0  0  0
   -2.6401   -3.1891    0.0000 C   0  0  0  0  0  0  0  0  0  0  0  0
   -1.2135   -2.7256    0.0000 N   0  0  0  0  0  0  0  0  0  0  0  0
   -0.0000   -3.6073    0.0000 C   0  0  0  0  0  0  0  0  0  0  0  0
   -0.0000   -5.1073    0.0000 C   0  0  0  0  0  0  0  0  0  0  0  0
    1.2135   -5.9890    0.0000 N   0  0  0  0  0  0  0  0  0  0  0  0
    0.7500   -7.4156    0.0000 O   0  0  0  0  0  0  0  0  0  0  0  0
   -0.7500   -7.4156    0.0000 N   0  0  0  0  0  0  0  0  0  0  0  0
   -1.2135   -5.9890    0.0000 C   0  0  0  0  0  0  0  0  0  0  0  0
   -2.6401   -5.5255    0.0000 N   0  0  0  0  0  0  0  0  0  0  0  0
    1.2135   -2.7256    0.0000 N   0  0  0  0  0  0  0  0  0  0  0  0
    0.7500   -1.2990    0.0000 C   0  0  0  0  0  0  0  0  0  0  0  0
    1.5000    0.0000    0.0000 C   0  0  0  0  0  0  0  0  0  0  0  0
    0.7500    1.2990    0.0000 N   0  0  0  0  0  0  0  0  0  0  0  0
   -0.7500    1.2990    0.0000 C   0  0  0  0  0  0  0  0  0  0  0  0
   -1.5000    0.0000    0.0000 C   0  0  0  0  0  0  0  0  0  0  0  0
   -3.0000    0.0000    0.0000 C   0  0  0  0  0  0  0  0  0  0  0  0
   -3.7500   -1.2990    0.0000 O   0  0  0  0  0  0  0  0  0  0  0  0
   -3.7500    1.2990    0.0000 N   0  0  0  0  0  0  0  0  0  0  0  0
   -3.0000    2.5981    0.0000 C   0  0  0  0  0  0  0  0  0  0  0  0
   -3.7500    3.8971    0.0000 C   0  0  0  0  0  0  0  0  0  0  0  0
   -5.2500    3.8971    0.0000 N   0  0  0  0  0  0  0  0  0  0  0  0
   -6.0000    2.5981    0.0000 C   0  0  0  0  0  0  0  0  0  0  0  0
   -5.2500    1.2990    0.0000 C   0  0  0  0  0  0  0  0  0  0  0  0
   -0.7500   -1.2990    0.0000 C   0  0  0  0  0  0  0  0  0  0  0  0
  1  2  1  0
  2  3  1  0
  3  4  1  0
  4  5  1  0
  5  6  2  0
  6  7  1  0
  7  8  1  0
  8  9  2  0
  9 10  1  0
  4 11  2  0
 11 12  1  0
 12 13  2  0
 13 14  1  0
 14 15  2  0
 15 16  1  0
 16 17  1  0
 17 18  2  0
 17 19  1  0
 19 20  1  0
 20 21  1  0
 21 22  1  0
 22 23  1  0
 23 24  1  0
 16 25  2  0
 25  3  1  0
  9  5  1  0
 25 12  1  0
 24 19  1  0
M  END
>  <Compound_ID>  (494) 
CHEMBL1909376

>  <Molecule Name>  (494) 
nan

>  <Molecular Weight>  (494) 
378.82

>  <AlogP>  (494) 
0.13

>  <Smiles>  (494) 
CCn1c(-c2nonc2N)nc2cncc(C(=O)N3CCNCC3)c21

>  <Standard Type>  (494) 
Inhibition

>  <Standard Relation>  (494) 
'='

>  <Standard Units>  (494) 
%

>  <Standard Value>  (494) 
5.18

>  <Assay ChEMBL ID>  (494) 
CHEMBL1962241

>  <Assay Description>  (494) 
GSK_PKIS: ALK mean inhibition at 1 uM [Nanosyn]

>  <BAO Format ID>  (494) 
BAO_0000357

>  <BAO Label>  (494) 
single protein format

>  <Assay Organism>  (494) 
None

>  <Target ChEMBL ID>  (494) 
CHEMBL4247

>  <Target Name>  (494) 
ALK tyrosine kinase receptor

>  <Target Organism>  (494) 
Homo sapiens

>  <Target Type>  (494) 
SINGLE PROTEIN

>  <Document ChEMBL ID>  (494) 
CHEMBL1961873

>  <Source Description>  (494) 
GSK Published Kinase Inhibitor Set

>  <Document Journal>  (494) 
nan

>  <Document Year>  (494) 
nan

>  <Active>  (494) 
0.0

>  <bits>  (494) 
<rdkit.DataStructs.cDataStructs.ExplicitBitVect object at 0x000002422C1BA420>

>  <Group>  (494) 
G2

$$$$

     RDKit          2D

 23 26  0  0  0  0  0  0  0  0999 V2000
   -7.2296    2.8340    0.0000 C   0  0  0  0  0  0  0  0  0  0  0  0
   -6.1149    1.8303    0.0000 O   0  0  0  0  0  0  0  0  0  0  0  0
   -4.6883    2.2939    0.0000 C   0  0  0  0  0  0  0  0  0  0  0  0
   -4.3764    3.7611    0.0000 O   0  0  0  0  0  0  0  0  0  0  0  0
   -3.5736    1.2902    0.0000 N   0  0  0  0  0  0  0  0  0  0  0  0
   -2.1470    1.7537    0.0000 C   0  0  0  0  0  0  0  0  0  0  0  0
   -1.8351    3.2209    0.0000 C   0  0  0  0  0  0  0  0  0  0  0  0
   -0.4086    3.6844    0.0000 C   0  0  0  0  0  0  0  0  0  0  0  0
   -0.0967    5.1517    0.0000 C   0  0  0  0  0  0  0  0  0  0  0  0
   -1.1004    6.2664    0.0000 C   0  0  0  0  0  0  0  0  0  0  0  0
   -2.5922    6.1096    0.0000 C   0  0  0  0  0  0  0  0  0  0  0  0
   -3.8057    5.2279    0.0000 C   0  0  0  0  0  0  0  0  0  0  0  0
   -3.9625    6.7197    0.0000 C   0  0  0  0  0  0  0  0  0  0  0  0
   -0.3504    7.5654    0.0000 N   0  0  0  0  0  0  0  0  0  0  0  0
    1.1168    7.2536    0.0000 N   0  0  0  0  0  0  0  0  0  0  0  0
    1.2736    5.7618    0.0000 C   0  0  0  0  0  0  0  0  0  0  0  0
    2.5727    5.0118    0.0000 C   0  0  0  0  0  0  0  0  0  0  0  0
    0.7062    2.6807    0.0000 C   0  0  0  0  0  0  0  0  0  0  0  0
    0.3943    1.2135    0.0000 C   0  0  0  0  0  0  0  0  0  0  0  0
    1.2760    0.0000    0.0000 N   0  0  0  0  0  0  0  0  0  0  0  0
    0.3943   -1.2135    0.0000 N   0  0  0  0  0  0  0  0  0  0  0  0
   -1.0323   -0.7500    0.0000 C   0  0  0  0  0  0  0  0  0  0  0  0
   -1.0323    0.7500    0.0000 C   0  0  0  0  0  0  0  0  0  0  0  0
  1  2  1  0
  2  3  1  0
  3  4  2  0
  3  5  1  0
  5  6  1  0
  6  7  2  0
  7  8  1  0
  8  9  1  0
  9 10  1  0
 10 11  1  0
 11 12  1  0
 12 13  1  0
 10 14  2  0
 14 15  1  0
 15 16  1  0
 16 17  1  0
  8 18  2  0
 18 19  1  0
 19 20  1  0
 20 21  1  0
 21 22  2  0
 22 23  1  0
 23  6  1  0
 16  9  2  0
 23 19  2  0
 13 11  1  0
M  END
>  <Compound_ID>  (495) 
CHEMBL4129737

>  <Molecule Name>  (495) 
nan

>  <Molecular Weight>  (495) 
311.35

>  <AlogP>  (495) 
3.32

>  <Smiles>  (495) 
COC(=O)Nc1cc(-c2c(C3CC3)n[nH]c2C)cc2[nH]ncc12

>  <Standard Type>  (495) 
Inhibition

>  <Standard Relation>  (495) 
'='

>  <Standard Units>  (495) 
%

>  <Standard Value>  (495) 
4.3

>  <Assay ChEMBL ID>  (495) 
CHEMBL4120871

>  <Assay Description>  (495) 
Inhibition of ALK (unknown origin) at 0.164 uM relative to control

>  <BAO Format ID>  (495) 
BAO_0000357

>  <BAO Label>  (495) 
single protein format

>  <Assay Organism>  (495) 
Homo sapiens

>  <Target ChEMBL ID>  (495) 
CHEMBL4247

>  <Target Name>  (495) 
ALK tyrosine kinase receptor

>  <Target Organism>  (495) 
Homo sapiens

>  <Target Type>  (495) 
SINGLE PROTEIN

>  <Document ChEMBL ID>  (495) 
CHEMBL4118098

>  <Source Description>  (495) 
Scientific Literature

>  <Document Journal>  (495) 
Bioorg Med Chem Lett

>  <Document Year>  (495) 
2017.0

>  <Active>  (495) 
0.0

>  <bits>  (495) 
<rdkit.DataStructs.cDataStructs.ExplicitBitVect object at 0x000002422C1BA030>

>  <Group>  (495) 
G2

$$$$

     RDKit          2D

 40 45  0  0  0  0  0  0  0  0999 V2000
   -7.9106   -1.1931    0.0000 C   0  0  0  0  0  0  0  0  0  0  0  0
   -6.4188   -1.3499    0.0000 C   0  0  0  0  0  0  0  0  0  0  0  0
   -5.5371   -0.1364    0.0000 N   0  0  0  0  0  0  0  0  0  0  0  0
   -4.0371   -0.1364    0.0000 C   0  0  0  0  0  0  0  0  0  0  0  0
   -3.5736    1.2902    0.0000 C   0  0  0  0  0  0  0  0  0  0  0  0
   -2.1470    1.7537    0.0000 C   0  0  0  0  0  0  0  0  0  0  0  0
   -1.8351    3.2209    0.0000 C   0  0  0  0  0  0  0  0  0  0  0  0
   -0.4086    3.6844    0.0000 C   0  0  0  0  0  0  0  0  0  0  0  0
    0.7062    2.6807    0.0000 N   0  0  0  0  0  0  0  0  0  0  0  0
    0.3943    1.2135    0.0000 C   0  0  0  0  0  0  0  0  0  0  0  0
    1.2760    0.0000    0.0000 N   0  0  0  0  0  0  0  0  0  0  0  0
    0.3943   -1.2135    0.0000 C   0  0  0  0  0  0  0  0  0  0  0  0
   -1.0323   -0.7500    0.0000 C   0  0  0  0  0  0  0  0  0  0  0  0
   -1.0323    0.7500    0.0000 C   0  0  0  0  0  0  0  0  0  0  0  0
   -4.7871    2.1718    0.0000 C   0  0  0  0  0  0  0  0  0  0  0  0
   -4.7871    3.6718    0.0000 C   0  0  0  0  0  0  0  0  0  0  0  0
   -3.4881    4.4218    0.0000 C   0  0  0  0  0  0  0  0  0  0  0  0
   -3.4881    5.9218    0.0000 C   0  0  0  0  0  0  0  0  0  0  0  0
   -4.7871    6.6718    0.0000 C   0  0  0  0  0  0  0  0  0  0  0  0
   -6.0862    5.9218    0.0000 C   0  0  0  0  0  0  0  0  0  0  0  0
   -7.3852    6.6718    0.0000 N   0  0  0  0  0  0  0  0  0  0  0  0
   -7.3852    8.1718    0.0000 C   0  0  0  0  0  0  0  0  0  0  0  0
   -6.0862    8.9218    0.0000 O   0  0  0  0  0  0  0  0  0  0  0  0
   -8.6842    8.9218    0.0000 N   0  0  0  0  0  0  0  0  0  0  0  0
   -8.6842   10.4218    0.0000 C   0  0  0  0  0  0  0  0  0  0  0  0
   -7.3852   11.1718    0.0000 C   0  0  0  0  0  0  0  0  0  0  0  0
   -7.3852   12.6718    0.0000 C   0  0  0  0  0  0  0  0  0  0  0  0
   -8.6842   13.4218    0.0000 C   0  0  0  0  0  0  0  0  0  0  0  0
   -8.6842   14.9218    0.0000 O   0  0  0  0  0  0  0  0  0  0  0  0
   -7.3852   15.6718    0.0000 C   0  0  0  0  0  0  0  0  0  0  0  0
   -7.3852   17.1718    0.0000 C   0  0  0  0  0  0  0  0  0  0  0  0
   -6.0862   17.9218    0.0000 C   0  0  0  0  0  0  0  0  0  0  0  0
   -6.0862   19.4218    0.0000 C   0  0  0  0  0  0  0  0  0  0  0  0
   -7.3852   20.1718    0.0000 C   0  0  0  0  0  0  0  0  0  0  0  0
   -8.6842   19.4218    0.0000 C   0  0  0  0  0  0  0  0  0  0  0  0
   -8.6842   17.9218    0.0000 C   0  0  0  0  0  0  0  0  0  0  0  0
   -9.9833   12.6718    0.0000 C   0  0  0  0  0  0  0  0  0  0  0  0
   -9.9833   11.1718    0.0000 C   0  0  0  0  0  0  0  0  0  0  0  0
   -6.0862    4.4218    0.0000 C   0  0  0  0  0  0  0  0  0  0  0  0
   -6.0006    1.2902    0.0000 N   0  0  0  0  0  0  0  0  0  0  0  0
  1  2  1  0
  2  3  1  0
  3  4  1  0
  4  5  2  0
  5  6  1  0
  6  7  2  0
  7  8  1  0
  8  9  2  0
  9 10  1  0
 10 11  1  0
 11 12  1  0
 12 13  2  0
 13 14  1  0
  5 15  1  0
 15 16  1  0
 16 17  2  0
 17 18  1  0
 18 19  2  0
 19 20  1  0
 20 21  1  0
 21 22  1  0
 22 23  2  0
 22 24  1  0
 24 25  1  0
 25 26  2  0
 26 27  1  0
 27 28  2  0
 28 29  1  0
 29 30  1  0
 30 31  1  0
 31 32  2  0
 32 33  1  0
 33 34  2  0
 34 35  1  0
 35 36  2  0
 28 37  1  0
 37 38  2  0
 20 39  2  0
 15 40  2  0
 40  3  1  0
 14  6  1  0
 39 16  1  0
 14 10  2  0
 38 25  1  0
 36 31  1  0
M  END
>  <Compound_ID>  (496) 
CHEMBL505187

>  <Molecule Name>  (496) 
GSK-718429A

>  <Molecular Weight>  (496) 
528.62

>  <AlogP>  (496) 
7.34

>  <Smiles>  (496) 
CCn1cc(-c2ccnc3[nH]ccc23)c(-c2cccc(NC(=O)Nc3ccc(OCc4ccccc4)cc3)c2)n1

>  <Standard Type>  (496) 
Inhibition

>  <Standard Relation>  (496) 
'='

>  <Standard Units>  (496) 
%

>  <Standard Value>  (496) 
0.6

>  <Assay ChEMBL ID>  (496) 
CHEMBL1962240

>  <Assay Description>  (496) 
GSK_PKIS: ALK mean inhibition at 0.1 uM [Nanosyn]

>  <BAO Format ID>  (496) 
BAO_0000357

>  <BAO Label>  (496) 
single protein format

>  <Assay Organism>  (496) 
None

>  <Target ChEMBL ID>  (496) 
CHEMBL4247

>  <Target Name>  (496) 
ALK tyrosine kinase receptor

>  <Target Organism>  (496) 
Homo sapiens

>  <Target Type>  (496) 
SINGLE PROTEIN

>  <Document ChEMBL ID>  (496) 
CHEMBL1961873

>  <Source Description>  (496) 
GSK Published Kinase Inhibitor Set

>  <Document Journal>  (496) 
nan

>  <Document Year>  (496) 
nan

>  <Active>  (496) 
0.0

>  <bits>  (496) 
<rdkit.DataStructs.cDataStructs.ExplicitBitVect object at 0x000002422C1B9E00>

>  <Group>  (496) 
G2

$$$$

     RDKit          2D

 26 29  0  0  0  0  0  0  0  0999 V2000
    4.6740   -4.8322    0.0000 N   0  0  0  0  0  0  0  0  0  0  0  0
    3.3037   -4.2221    0.0000 C   0  0  0  0  0  0  0  0  0  0  0  0
    2.9918   -2.7549    0.0000 N   0  0  0  0  0  0  0  0  0  0  0  0
    1.5000   -2.5981    0.0000 C   0  0  0  0  0  0  0  0  0  0  0  0
    0.7500   -1.2990    0.0000 C   0  0  0  0  0  0  0  0  0  0  0  0
    1.5000    0.0000    0.0000 C   0  0  0  0  0  0  0  0  0  0  0  0
    0.7500    1.2990    0.0000 C   0  0  0  0  0  0  0  0  0  0  0  0
   -0.7500    1.2990    0.0000 C   0  0  0  0  0  0  0  0  0  0  0  0
   -1.5000    0.0000    0.0000 C   0  0  0  0  0  0  0  0  0  0  0  0
   -0.7500   -1.2990    0.0000 C   0  0  0  0  0  0  0  0  0  0  0  0
   -2.9672    0.3119    0.0000 C   0  0  0  0  0  0  0  0  0  0  0  0
   -4.0819   -0.6918    0.0000 C   0  0  0  0  0  0  0  0  0  0  0  0
   -5.5085   -0.2283    0.0000 C   0  0  0  0  0  0  0  0  0  0  0  0
   -5.8204    1.2389    0.0000 C   0  0  0  0  0  0  0  0  0  0  0  0
   -7.2470    1.7024    0.0000 C   0  0  0  0  0  0  0  0  0  0  0  0
   -7.5588    3.1697    0.0000 Br  0  0  0  0  0  0  0  0  0  0  0  0
   -8.3617    0.6987    0.0000 C   0  0  0  0  0  0  0  0  0  0  0  0
   -9.7883    1.1623    0.0000 O   0  0  0  0  0  0  0  0  0  0  0  0
   -8.0498   -0.7685    0.0000 C   0  0  0  0  0  0  0  0  0  0  0  0
   -9.1645   -1.7722    0.0000 Br  0  0  0  0  0  0  0  0  0  0  0  0
   -6.6232   -1.2320    0.0000 C   0  0  0  0  0  0  0  0  0  0  0  0
   -3.1240    1.8037    0.0000 C   0  0  0  0  0  0  0  0  0  0  0  0
   -4.4231    2.5537    0.0000 O   0  0  0  0  0  0  0  0  0  0  0  0
   -1.7537    2.4138    0.0000 N   0  0  0  0  0  0  0  0  0  0  0  0
    0.8899   -3.9684    0.0000 C   0  0  0  0  0  0  0  0  0  0  0  0
    2.0046   -4.9721    0.0000 S   0  0  0  0  0  0  0  0  0  0  0  0
  1  2  1  0
  2  3  2  0
  3  4  1  0
  4  5  1  0
  5  6  2  0
  6  7  1  0
  7  8  2  0
  8  9  1  0
  9 10  2  0
  9 11  1  0
 11 12  2  3
 12 13  1  0
 13 14  2  0
 14 15  1  0
 15 16  1  0
 15 17  2  0
 17 18  1  0
 17 19  1  0
 19 20  1  0
 19 21  2  0
 11 22  1  0
 22 23  2  0
 22 24  1  0
  4 25  2  0
 25 26  1  0
 26  2  1  0
 10  5  1  0
 21 13  1  0
 24  8  1  0
M  END
>  <Compound_ID>  (497) 
CHEMBL1794053

>  <Molecule Name>  (497) 
GW407323A

>  <Molecular Weight>  (497) 
529.64

>  <AlogP>  (497) 
5.12

>  <Smiles>  (497) 
Nc1nc(-c2ccc3c(c2)C(=Cc2cc(Br)c(O)c(Br)c2)C(=O)N3)cs1

>  <Standard Type>  (497) 
Inhibition

>  <Standard Relation>  (497) 
'='

>  <Standard Units>  (497) 
%

>  <Standard Value>  (497) 
1.3

>  <Assay ChEMBL ID>  (497) 
CHEMBL1962241

>  <Assay Description>  (497) 
GSK_PKIS: ALK mean inhibition at 1 uM [Nanosyn]

>  <BAO Format ID>  (497) 
BAO_0000357

>  <BAO Label>  (497) 
single protein format

>  <Assay Organism>  (497) 
None

>  <Target ChEMBL ID>  (497) 
CHEMBL4247

>  <Target Name>  (497) 
ALK tyrosine kinase receptor

>  <Target Organism>  (497) 
Homo sapiens

>  <Target Type>  (497) 
SINGLE PROTEIN

>  <Document ChEMBL ID>  (497) 
CHEMBL1961873

>  <Source Description>  (497) 
GSK Published Kinase Inhibitor Set

>  <Document Journal>  (497) 
nan

>  <Document Year>  (497) 
nan

>  <Active>  (497) 
0.0

>  <bits>  (497) 
<rdkit.DataStructs.cDataStructs.ExplicitBitVect object at 0x000002422C1B9B60>

>  <Group>  (497) 
G2

$$$$

     RDKit          2D

 39 43  0  0  0  0  0  0  0  0999 V2000
  -11.4711  -10.1522    0.0000 C   0  0  0  0  0  0  0  0  0  0  0  0
  -10.8609   -8.7818    0.0000 S   0  0  0  0  0  0  0  0  0  0  0  0
   -9.4906   -9.3919    0.0000 O   0  0  0  0  0  0  0  0  0  0  0  0
  -12.2313   -8.1717    0.0000 O   0  0  0  0  0  0  0  0  0  0  0  0
  -10.2508   -7.4115    0.0000 C   0  0  0  0  0  0  0  0  0  0  0  0
   -8.7591   -7.2547    0.0000 C   0  0  0  0  0  0  0  0  0  0  0  0
   -8.1490   -5.8844    0.0000 N   0  0  0  0  0  0  0  0  0  0  0  0
   -6.6572   -5.7276    0.0000 C   0  0  0  0  0  0  0  0  0  0  0  0
   -6.0471   -4.3573    0.0000 C   0  0  0  0  0  0  0  0  0  0  0  0
   -4.5798   -4.0454    0.0000 C   0  0  0  0  0  0  0  0  0  0  0  0
   -4.4231   -2.5537    0.0000 C   0  0  0  0  0  0  0  0  0  0  0  0
   -3.1240   -1.8037    0.0000 C   0  0  0  0  0  0  0  0  0  0  0  0
   -1.7537   -2.4138    0.0000 C   0  0  0  0  0  0  0  0  0  0  0  0
   -0.7500   -1.2990    0.0000 C   0  0  0  0  0  0  0  0  0  0  0  0
    0.7500   -1.2990    0.0000 C   0  0  0  0  0  0  0  0  0  0  0  0
    1.5000   -2.5981    0.0000 N   0  0  0  0  0  0  0  0  0  0  0  0
    3.0000   -2.5981    0.0000 C   0  0  0  0  0  0  0  0  0  0  0  0
    3.7500   -3.8971    0.0000 C   0  0  0  0  0  0  0  0  0  0  0  0
    5.2500   -3.8971    0.0000 C   0  0  0  0  0  0  0  0  0  0  0  0
    6.0000   -2.5981    0.0000 C   0  0  0  0  0  0  0  0  0  0  0  0
    7.5000   -2.5981    0.0000 O   0  0  0  0  0  0  0  0  0  0  0  0
    8.2500   -3.8971    0.0000 C   0  0  0  0  0  0  0  0  0  0  0  0
    9.7500   -3.8971    0.0000 C   0  0  0  0  0  0  0  0  0  0  0  0
   10.5000   -5.1962    0.0000 C   0  0  0  0  0  0  0  0  0  0  0  0
   12.0000   -5.1962    0.0000 C   0  0  0  0  0  0  0  0  0  0  0  0
   12.7500   -3.8971    0.0000 C   0  0  0  0  0  0  0  0  0  0  0  0
   12.0000   -2.5981    0.0000 C   0  0  0  0  0  0  0  0  0  0  0  0
   12.7500   -1.2990    0.0000 F   0  0  0  0  0  0  0  0  0  0  0  0
   10.5000   -2.5981    0.0000 C   0  0  0  0  0  0  0  0  0  0  0  0
    5.2500   -1.2990    0.0000 C   0  0  0  0  0  0  0  0  0  0  0  0
    6.0000   -0.0000    0.0000 Cl  0  0  0  0  0  0  0  0  0  0  0  0
    3.7500   -1.2990    0.0000 C   0  0  0  0  0  0  0  0  0  0  0  0
    1.5000    0.0000    0.0000 N   0  0  0  0  0  0  0  0  0  0  0  0
    0.7500    1.2990    0.0000 C   0  0  0  0  0  0  0  0  0  0  0  0
   -0.7500    1.2990    0.0000 N   0  0  0  0  0  0  0  0  0  0  0  0
   -1.5000    0.0000    0.0000 C   0  0  0  0  0  0  0  0  0  0  0  0
   -2.9672   -0.3119    0.0000 S   0  0  0  0  0  0  0  0  0  0  0  0
   -5.7934   -1.9435    0.0000 C   0  0  0  0  0  0  0  0  0  0  0  0
   -6.7971   -3.0583    0.0000 S   0  0  0  0  0  0  0  0  0  0  0  0
  1  2  1  0
  2  3  2  0
  2  4  2  0
  2  5  1  0
  5  6  1  0
  6  7  1  0
  7  8  1  0
  8  9  1  0
  9 10  2  0
 10 11  1  0
 11 12  1  0
 12 13  2  0
 13 14  1  0
 14 15  2  0
 15 16  1  0
 16 17  1  0
 17 18  2  0
 18 19  1  0
 19 20  2  0
 20 21  1  0
 21 22  1  0
 22 23  1  0
 23 24  2  0
 24 25  1  0
 25 26  2  0
 26 27  1  0
 27 28  1  0
 27 29  2  0
 20 30  1  0
 30 31  1  0
 30 32  2  0
 15 33  1  0
 33 34  2  0
 34 35  1  0
 35 36  2  0
 36 37  1  0
 11 38  2  0
 38 39  1  0
 39  9  1  0
 37 12  1  0
 36 14  1  0
 32 17  1  0
 29 23  1  0
M  END
>  <Compound_ID>  (498) 
CHEMBL475599

>  <Molecule Name>  (498) 
GSK-300014A

>  <Molecular Weight>  (498) 
603.17

>  <AlogP>  (498) 
6.67

>  <Smiles>  (498) 
CS(=O)(=O)CCNCc1cc(-c2cc3c(Nc4ccc(OCc5cccc(F)c5)c(Cl)c4)ncnc3s2)cs1

>  <Standard Type>  (498) 
Inhibition

>  <Standard Relation>  (498) 
'='

>  <Standard Units>  (498) 
%

>  <Standard Value>  (498) 
4.5

>  <Assay ChEMBL ID>  (498) 
CHEMBL1962241

>  <Assay Description>  (498) 
GSK_PKIS: ALK mean inhibition at 1 uM [Nanosyn]

>  <BAO Format ID>  (498) 
BAO_0000357

>  <BAO Label>  (498) 
single protein format

>  <Assay Organism>  (498) 
None

>  <Target ChEMBL ID>  (498) 
CHEMBL4247

>  <Target Name>  (498) 
ALK tyrosine kinase receptor

>  <Target Organism>  (498) 
Homo sapiens

>  <Target Type>  (498) 
SINGLE PROTEIN

>  <Document ChEMBL ID>  (498) 
CHEMBL1961873

>  <Source Description>  (498) 
GSK Published Kinase Inhibitor Set

>  <Document Journal>  (498) 
nan

>  <Document Year>  (498) 
nan

>  <Active>  (498) 
0.0

>  <bits>  (498) 
<rdkit.DataStructs.cDataStructs.ExplicitBitVect object at 0x000002422C1BA1F0>

>  <Group>  (498) 
G2

$$$$

     RDKit          2D

 20 23  0  0  0  0  0  0  0  0999 V2000
   -0.0000   -5.1073    0.0000 O   0  0  0  0  0  0  0  0  0  0  0  0
   -0.0000   -3.6073    0.0000 C   0  0  0  0  0  0  0  0  0  0  0  0
    1.2135   -2.7256    0.0000 N   0  0  0  0  0  0  0  0  0  0  0  0
    0.7500   -1.2990    0.0000 C   0  0  0  0  0  0  0  0  0  0  0  0
    1.5000    0.0000    0.0000 C   0  0  0  0  0  0  0  0  0  0  0  0
    0.7500    1.2990    0.0000 C   0  0  0  0  0  0  0  0  0  0  0  0
   -0.7500    1.2990    0.0000 C   0  0  0  0  0  0  0  0  0  0  0  0
   -1.5000    0.0000    0.0000 C   0  0  0  0  0  0  0  0  0  0  0  0
   -0.7500   -1.2990    0.0000 C   0  0  0  0  0  0  0  0  0  0  0  0
   -1.2135   -2.7256    0.0000 C   0  0  0  0  0  0  0  0  0  0  0  0
   -2.6401   -3.1891    0.0000 C   0  0  0  0  0  0  0  0  0  0  0  0
   -3.8536   -2.3075    0.0000 C   0  0  0  0  0  0  0  0  0  0  0  0
   -5.0672   -3.1891    0.0000 C   0  0  0  0  0  0  0  0  0  0  0  0
   -4.6036   -4.6157    0.0000 C   0  0  0  0  0  0  0  0  0  0  0  0
   -5.3536   -5.9148    0.0000 C   0  0  0  0  0  0  0  0  0  0  0  0
   -4.6036   -7.2138    0.0000 C   0  0  0  0  0  0  0  0  0  0  0  0
   -5.3536   -8.5128    0.0000 O   0  0  0  0  0  0  0  0  0  0  0  0
   -3.1036   -7.2138    0.0000 C   0  0  0  0  0  0  0  0  0  0  0  0
   -2.3536   -5.9148    0.0000 C   0  0  0  0  0  0  0  0  0  0  0  0
   -3.1036   -4.6157    0.0000 C   0  0  0  0  0  0  0  0  0  0  0  0
  1  2  2  0
  2  3  1  0
  3  4  1  0
  4  5  2  0
  5  6  1  0
  6  7  2  0
  7  8  1  0
  8  9  2  0
  9 10  1  0
 10 11  2  0
 11 12  1  0
 12 13  1  0
 13 14  1  0
 14 15  2  0
 15 16  1  0
 16 17  1  0
 16 18  2  0
 18 19  1  0
 19 20  2  0
 10  2  1  0
 20 11  1  0
  9  4  1  0
 20 14  1  0
M  END
>  <Compound_ID>  (499) 
CHEMBL175321

>  <Molecule Name>  (499) 
nan

>  <Molecular Weight>  (499) 
263.3

>  <AlogP>  (499) 
3.2

>  <Smiles>  (499) 
O=C1Nc2ccccc2/C1=C1\CCc2cc(O)ccc21

>  <Standard Type>  (499) 
Inhibition

>  <Standard Relation>  (499) 
'='

>  <Standard Units>  (499) 
%

>  <Standard Value>  (499) 
5.54

>  <Assay ChEMBL ID>  (499) 
CHEMBL1962240

>  <Assay Description>  (499) 
GSK_PKIS: ALK mean inhibition at 0.1 uM [Nanosyn]

>  <BAO Format ID>  (499) 
BAO_0000357

>  <BAO Label>  (499) 
single protein format

>  <Assay Organism>  (499) 
None

>  <Target ChEMBL ID>  (499) 
CHEMBL4247

>  <Target Name>  (499) 
ALK tyrosine kinase receptor

>  <Target Organism>  (499) 
Homo sapiens

>  <Target Type>  (499) 
SINGLE PROTEIN

>  <Document ChEMBL ID>  (499) 
CHEMBL1961873

>  <Source Description>  (499) 
GSK Published Kinase Inhibitor Set

>  <Document Journal>  (499) 
nan

>  <Document Year>  (499) 
nan

>  <Active>  (499) 
0.0

>  <bits>  (499) 
<rdkit.DataStructs.cDataStructs.ExplicitBitVect object at 0x000002422C1B9E70>

>  <Group>  (499) 
G2

$$$$

     RDKit          2D

 28 31  0  0  0  0  0  0  0  0999 V2000
    9.7500   -1.2990    0.0000 C   0  0  0  0  0  0  0  0  0  0  0  0
    8.2500   -1.2990    0.0000 O   0  0  0  0  0  0  0  0  0  0  0  0
    7.5000   -2.5981    0.0000 C   0  0  0  0  0  0  0  0  0  0  0  0
    8.2500   -3.8971    0.0000 C   0  0  0  0  0  0  0  0  0  0  0  0
    7.5000   -5.1962    0.0000 C   0  0  0  0  0  0  0  0  0  0  0  0
    6.0000   -5.1962    0.0000 C   0  0  0  0  0  0  0  0  0  0  0  0
    5.2500   -3.8971    0.0000 C   0  0  0  0  0  0  0  0  0  0  0  0
    3.7500   -3.8971    0.0000 C   0  0  0  0  0  0  0  0  0  0  0  0
    3.0000   -2.5981    0.0000 N   0  0  0  0  0  0  0  0  0  0  0  0
    1.5000   -2.5981    0.0000 N   0  0  0  0  0  0  0  0  0  0  0  0
    0.7500   -1.2990    0.0000 C   0  0  0  0  0  0  0  0  0  0  0  0
    1.5000    0.0000    0.0000 N   0  0  0  0  0  0  0  0  0  0  0  0
    0.7500    1.2990    0.0000 C   0  0  0  0  0  0  0  0  0  0  0  0
   -0.7500    1.2990    0.0000 N   0  0  0  0  0  0  0  0  0  0  0  0
   -1.5000    0.0000    0.0000 C   0  0  0  0  0  0  0  0  0  0  0  0
   -0.7500   -1.2990    0.0000 C   0  0  0  0  0  0  0  0  0  0  0  0
   -1.7537   -2.4138    0.0000 C   0  0  0  0  0  0  0  0  0  0  0  0
   -3.1240   -1.8037    0.0000 N   0  0  0  0  0  0  0  0  0  0  0  0
   -2.9672   -0.3119    0.0000 N   0  0  0  0  0  0  0  0  0  0  0  0
   -4.0819    0.6918    0.0000 C   0  0  0  0  0  0  0  0  0  0  0  0
   -3.7701    2.1590    0.0000 C   0  0  0  0  0  0  0  0  0  0  0  0
   -4.8848    3.1627    0.0000 C   0  0  0  0  0  0  0  0  0  0  0  0
   -6.3114    2.6992    0.0000 C   0  0  0  0  0  0  0  0  0  0  0  0
   -6.6232    1.2320    0.0000 C   0  0  0  0  0  0  0  0  0  0  0  0
   -8.0498    0.7685    0.0000 O   0  0  0  0  0  0  0  0  0  0  0  0
   -9.1645    1.7722    0.0000 C   0  0  0  0  0  0  0  0  0  0  0  0
   -5.5085    0.2283    0.0000 C   0  0  0  0  0  0  0  0  0  0  0  0
    6.0000   -2.5981    0.0000 C   0  0  0  0  0  0  0  0  0  0  0  0
  1  2  1  0
  2  3  1  0
  3  4  2  0
  4  5  1  0
  5  6  2  0
  6  7  1  0
  7  8  1  0
  8  9  2  0
  9 10  1  0
 10 11  1  0
 11 12  2  0
 12 13  1  0
 13 14  2  0
 14 15  1  0
 15 16  2  0
 16 17  1  0
 17 18  2  0
 18 19  1  0
 19 20  1  0
 20 21  2  0
 21 22  1  0
 22 23  2  0
 23 24  1  0
 24 25  1  0
 25 26  1  0
 24 27  2  0
  7 28  2  0
 28  3  1  0
 16 11  1  0
 27 20  1  0
 19 15  1  0
M  END
>  <Compound_ID>  (500) 
CHEMBL305477

>  <Molecule Name>  (500) 
GW829874X

>  <Molecular Weight>  (500) 
374.4

>  <AlogP>  (500) 
3.28

>  <Smiles>  (500) 
COc1cccc(/C=N/Nc2ncnc3c2cnn3-c2cccc(OC)c2)c1

>  <Standard Type>  (500) 
Inhibition

>  <Standard Relation>  (500) 
'='

>  <Standard Units>  (500) 
%

>  <Standard Value>  (500) 
2.63

>  <Assay ChEMBL ID>  (500) 
CHEMBL1962241

>  <Assay Description>  (500) 
GSK_PKIS: ALK mean inhibition at 1 uM [Nanosyn]

>  <BAO Format ID>  (500) 
BAO_0000357

>  <BAO Label>  (500) 
single protein format

>  <Assay Organism>  (500) 
None

>  <Target ChEMBL ID>  (500) 
CHEMBL4247

>  <Target Name>  (500) 
ALK tyrosine kinase receptor

>  <Target Organism>  (500) 
Homo sapiens

>  <Target Type>  (500) 
SINGLE PROTEIN

>  <Document ChEMBL ID>  (500) 
CHEMBL1961873

>  <Source Description>  (500) 
GSK Published Kinase Inhibitor Set

>  <Document Journal>  (500) 
nan

>  <Document Year>  (500) 
nan

>  <Active>  (500) 
0.0

>  <bits>  (500) 
<rdkit.DataStructs.cDataStructs.ExplicitBitVect object at 0x000002422C1BBD80>

>  <Group>  (500) 
G2

$$$$

     RDKit          2D

 27 30  0  0  0  0  0  0  0  0999 V2000
    9.6612    4.5113    0.0000 C   0  0  0  0  0  0  0  0  0  0  0  0
    8.6575    5.6260    0.0000 C   0  0  0  0  0  0  0  0  0  0  0  0
    7.1902    5.3142    0.0000 N   0  0  0  0  0  0  0  0  0  0  0  0
    6.7267    3.8876    0.0000 C   0  0  0  0  0  0  0  0  0  0  0  0
    5.2595    3.5757    0.0000 C   0  0  0  0  0  0  0  0  0  0  0  0
    4.2558    4.6904    0.0000 C   0  0  0  0  0  0  0  0  0  0  0  0
    2.7886    4.3786    0.0000 C   0  0  0  0  0  0  0  0  0  0  0  0
    2.3250    2.9520    0.0000 C   0  0  0  0  0  0  0  0  0  0  0  0
    3.3287    1.8373    0.0000 O   0  0  0  0  0  0  0  0  0  0  0  0
    0.8578    2.6401    0.0000 N   0  0  0  0  0  0  0  0  0  0  0  0
    0.3943    1.2135    0.0000 C   0  0  0  0  0  0  0  0  0  0  0  0
    1.2760    0.0000    0.0000 N   0  0  0  0  0  0  0  0  0  0  0  0
    0.3943   -1.2135    0.0000 N   0  0  0  0  0  0  0  0  0  0  0  0
   -1.0323   -0.7500    0.0000 C   0  0  0  0  0  0  0  0  0  0  0  0
   -2.3313   -1.5000    0.0000 N   0  0  0  0  0  0  0  0  0  0  0  0
   -3.6304   -0.7500    0.0000 C   0  0  0  0  0  0  0  0  0  0  0  0
   -4.9294   -1.5000    0.0000 C   0  0  0  0  0  0  0  0  0  0  0  0
   -5.0862   -2.9918    0.0000 C   0  0  0  0  0  0  0  0  0  0  0  0
   -6.5534   -3.3037    0.0000 C   0  0  0  0  0  0  0  0  0  0  0  0
   -7.3034   -2.0046    0.0000 C   0  0  0  0  0  0  0  0  0  0  0  0
   -6.2997   -0.8899    0.0000 S   0  0  0  0  0  0  0  0  0  0  0  0
   -3.6304    0.7500    0.0000 C   0  0  0  0  0  0  0  0  0  0  0  0
   -4.9294    1.5000    0.0000 Br  0  0  0  0  0  0  0  0  0  0  0  0
   -2.3313    1.5000    0.0000 C   0  0  0  0  0  0  0  0  0  0  0  0
   -1.0323    0.7500    0.0000 C   0  0  0  0  0  0  0  0  0  0  0  0
    4.7193    6.1170    0.0000 C   0  0  0  0  0  0  0  0  0  0  0  0
    6.1865    6.4289    0.0000 C   0  0  0  0  0  0  0  0  0  0  0  0
  1  2  1  0
  2  3  1  0
  3  4  1  0
  4  5  1  0
  5  6  1  0
  6  7  1  0
  7  8  1  0
  8  9  2  0
  8 10  1  0
 10 11  1  0
 11 12  2  0
 12 13  1  0
 13 14  1  0
 14 15  2  0
 15 16  1  0
 16 17  1  0
 17 18  2  0
 18 19  1  0
 19 20  2  0
 20 21  1  0
 16 22  2  0
 22 23  1  0
 22 24  1  0
 24 25  2  0
  6 26  1  0
 26 27  1  0
 27  3  1  0
 25 11  1  0
 25 14  1  0
 21 17  1  0
M  END
>  <Compound_ID>  (501) 
CHEMBL2062290

>  <Molecule Name>  (501) 
nan

>  <Molecular Weight>  (501) 
598.48

>  <AlogP>  (501) 
4.51

>  <Smiles>  (501) 
CCN1CCC(CC(=O)Nc2n[nH]c3nc(-c4cccs4)c(Br)cc23)CC1

>  <Standard Type>  (501) 
Inhibition

>  <Standard Relation>  (501) 
'='

>  <Standard Units>  (501) 
%

>  <Standard Value>  (501) 
-2.08

>  <Assay ChEMBL ID>  (501) 
CHEMBL1962240

>  <Assay Description>  (501) 
GSK_PKIS: ALK mean inhibition at 0.1 uM [Nanosyn]

>  <BAO Format ID>  (501) 
BAO_0000357

>  <BAO Label>  (501) 
single protein format

>  <Assay Organism>  (501) 
None

>  <Target ChEMBL ID>  (501) 
CHEMBL4247

>  <Target Name>  (501) 
ALK tyrosine kinase receptor

>  <Target Organism>  (501) 
Homo sapiens

>  <Target Type>  (501) 
SINGLE PROTEIN

>  <Document ChEMBL ID>  (501) 
CHEMBL1961873

>  <Source Description>  (501) 
GSK Published Kinase Inhibitor Set

>  <Document Journal>  (501) 
nan

>  <Document Year>  (501) 
nan

>  <Active>  (501) 
0.0

>  <bits>  (501) 
<rdkit.DataStructs.cDataStructs.ExplicitBitVect object at 0x000002422C1BA110>

>  <Group>  (501) 
G2

$$$$

     RDKit          2D

 33 36  0  0  0  0  0  0  0  0999 V2000
    1.3299    5.6152    0.0000 C   0  0  0  0  0  0  0  0  0  0  0  0
   -0.0967    5.1517    0.0000 O   0  0  0  0  0  0  0  0  0  0  0  0
   -0.4086    3.6844    0.0000 C   0  0  0  0  0  0  0  0  0  0  0  0
    0.7062    2.6807    0.0000 C   0  0  0  0  0  0  0  0  0  0  0  0
    0.3943    1.2135    0.0000 C   0  0  0  0  0  0  0  0  0  0  0  0
    1.2760    0.0000    0.0000 N   0  0  0  0  0  0  0  0  0  0  0  0
    0.3943   -1.2135    0.0000 C   0  0  0  0  0  0  0  0  0  0  0  0
   -1.0323   -0.7500    0.0000 N   0  0  0  0  0  0  0  0  0  0  0  0
   -2.2458   -1.6317    0.0000 C   0  0  0  0  0  0  0  0  0  0  0  0
   -2.2458   -3.1317    0.0000 C   0  0  0  0  0  0  0  0  0  0  0  0
   -3.6724   -3.5952    0.0000 C   0  0  0  0  0  0  0  0  0  0  0  0
   -4.1359   -5.0218    0.0000 O   0  0  0  0  0  0  0  0  0  0  0  0
   -5.6031   -5.3337    0.0000 C   0  0  0  0  0  0  0  0  0  0  0  0
   -6.0667   -6.7602    0.0000 C   0  0  0  0  0  0  0  0  0  0  0  0
   -7.5339   -7.0721    0.0000 C   0  0  0  0  0  0  0  0  0  0  0  0
   -7.9974   -8.4987    0.0000 C   0  0  0  0  0  0  0  0  0  0  0  0
   -6.9937   -9.6134    0.0000 C   0  0  0  0  0  0  0  0  0  0  0  0
   -5.5265   -9.3015    0.0000 C   0  0  0  0  0  0  0  0  0  0  0  0
   -5.0630   -7.8750    0.0000 C   0  0  0  0  0  0  0  0  0  0  0  0
   -3.5958   -7.5631    0.0000 C   0  0  0  0  0  0  0  0  0  0  0  0
   -2.1285   -7.2512    0.0000 F   0  0  0  0  0  0  0  0  0  0  0  0
   -3.2839   -9.0303    0.0000 F   0  0  0  0  0  0  0  0  0  0  0  0
   -3.9076   -6.0959    0.0000 F   0  0  0  0  0  0  0  0  0  0  0  0
   -4.5541   -2.3817    0.0000 C   0  0  0  0  0  0  0  0  0  0  0  0
   -6.0541   -2.3817    0.0000 C   0  0  0  0  0  0  0  0  0  0  0  0
   -6.8041   -1.0826    0.0000 N   0  0  0  0  0  0  0  0  0  0  0  0
   -6.8041   -3.6807    0.0000 O   0  0  0  0  0  0  0  0  0  0  0  0
   -3.6724   -1.1682    0.0000 S   0  0  0  0  0  0  0  0  0  0  0  0
   -1.0323    0.7500    0.0000 C   0  0  0  0  0  0  0  0  0  0  0  0
   -2.1470    1.7537    0.0000 C   0  0  0  0  0  0  0  0  0  0  0  0
   -1.8351    3.2209    0.0000 C   0  0  0  0  0  0  0  0  0  0  0  0
   -2.9499    4.2246    0.0000 O   0  0  0  0  0  0  0  0  0  0  0  0
   -4.3764    3.7611    0.0000 C   0  0  0  0  0  0  0  0  0  0  0  0
  1  2  1  0
  2  3  1  0
  3  4  2  0
  4  5  1  0
  5  6  1  0
  6  7  2  0
  7  8  1  0
  8  9  1  0
  9 10  2  0
 10 11  1  0
 11 12  1  0
 12 13  1  0
 13 14  1  0
 14 15  2  0
 15 16  1  0
 16 17  2  0
 17 18  1  0
 18 19  2  0
 19 20  1  0
 20 21  1  0
 20 22  1  0
 20 23  1  0
 11 24  2  0
 24 25  1  0
 25 26  1  0
 25 27  2  0
 24 28  1  0
  8 29  1  0
 29 30  1  0
 30 31  2  0
 31 32  1  0
 32 33  1  0
 31  3  1  0
 29  5  2  0
 28  9  1  0
 19 14  1  0
M  END
>  <Compound_ID>  (502) 
CHEMBL514499

>  <Molecule Name>  (502) 
GW843682X

>  <Molecular Weight>  (502) 
477.46

>  <AlogP>  (502) 
4.8

>  <Smiles>  (502) 
COc1cc2ncn(-c3cc(OCc4ccccc4C(F)(F)F)c(C(N)=O)s3)c2cc1OC

>  <Standard Type>  (502) 
Inhibition

>  <Standard Relation>  (502) 
'='

>  <Standard Units>  (502) 
%

>  <Standard Value>  (502) 
5.04

>  <Assay ChEMBL ID>  (502) 
CHEMBL1962241

>  <Assay Description>  (502) 
GSK_PKIS: ALK mean inhibition at 1 uM [Nanosyn]

>  <BAO Format ID>  (502) 
BAO_0000357

>  <BAO Label>  (502) 
single protein format

>  <Assay Organism>  (502) 
None

>  <Target ChEMBL ID>  (502) 
CHEMBL4247

>  <Target Name>  (502) 
ALK tyrosine kinase receptor

>  <Target Organism>  (502) 
Homo sapiens

>  <Target Type>  (502) 
SINGLE PROTEIN

>  <Document ChEMBL ID>  (502) 
CHEMBL1961873

>  <Source Description>  (502) 
GSK Published Kinase Inhibitor Set

>  <Document Journal>  (502) 
nan

>  <Document Year>  (502) 
nan

>  <Active>  (502) 
0.0

>  <bits>  (502) 
<rdkit.DataStructs.cDataStructs.ExplicitBitVect object at 0x000002422C1BBF40>

>  <Group>  (502) 
G2

$$$$

     RDKit          2D

 38 42  0  0  0  0  0  0  0  0999 V2000
   -3.8230    3.5974    0.0000 O   0  0  0  0  0  0  0  0  0  0  0  0
   -2.4186    3.0703    0.0000 C   0  0  0  0  0  0  0  0  0  0  0  0
   -1.3344    4.1069    0.0000 C   0  0  0  0  0  0  0  0  0  0  0  0
    0.1520    3.9056    0.0000 C   0  0  0  0  0  0  0  0  0  0  0  0
    0.9784    5.1574    0.0000 C   0  0  0  0  0  0  0  0  0  0  0  0
    2.4757    5.0677    0.0000 C   0  0  0  0  0  0  0  0  0  0  0  0
    3.3020    6.3196    0.0000 C   0  0  0  0  0  0  0  0  0  0  0  0
    2.6310    7.6611    0.0000 C   0  0  0  0  0  0  0  0  0  0  0  0
    1.1337    7.7508    0.0000 C   0  0  0  0  0  0  0  0  0  0  0  0
    0.4628    9.0924    0.0000 N   0  0  0  0  0  0  0  0  0  0  0  0
    1.2891   10.3443    0.0000 C   0  0  0  0  0  0  0  0  0  0  0  0
    2.7864   10.2546    0.0000 O   0  0  0  0  0  0  0  0  0  0  0  0
    0.6181   11.6858    0.0000 C   0  0  0  0  0  0  0  0  0  0  0  0
    1.4445   12.9377    0.0000 C   0  0  0  0  0  0  0  0  0  0  0  0
    0.7735   14.2793    0.0000 C   0  0  0  0  0  0  0  0  0  0  0  0
   -0.7238   14.3690    0.0000 C   0  0  0  0  0  0  0  0  0  0  0  0
   -1.3948   15.7105    0.0000 Cl  0  0  0  0  0  0  0  0  0  0  0  0
   -1.5501   13.1171    0.0000 C   0  0  0  0  0  0  0  0  0  0  0  0
   -3.0475   13.2068    0.0000 C   0  0  0  0  0  0  0  0  0  0  0  0
   -4.5448   13.2965    0.0000 F   0  0  0  0  0  0  0  0  0  0  0  0
   -3.1372   11.7095    0.0000 F   0  0  0  0  0  0  0  0  0  0  0  0
   -2.9578   14.7041    0.0000 F   0  0  0  0  0  0  0  0  0  0  0  0
   -0.8792   11.7755    0.0000 C   0  0  0  0  0  0  0  0  0  0  0  0
    0.3074    6.4990    0.0000 C   0  0  0  0  0  0  0  0  0  0  0  0
    0.9214    2.6179    0.0000 N   0  0  0  0  0  0  0  0  0  0  0  0
    0.3943    1.2135    0.0000 C   0  0  0  0  0  0  0  0  0  0  0  0
    1.2760    0.0000    0.0000 C   0  0  0  0  0  0  0  0  0  0  0  0
    0.3943   -1.2135    0.0000 N   0  0  0  0  0  0  0  0  0  0  0  0
   -1.0323   -0.7500    0.0000 N   0  0  0  0  0  0  0  0  0  0  0  0
   -2.2458   -1.6317    0.0000 C   0  0  0  0  0  0  0  0  0  0  0  0
   -2.0890   -3.1235    0.0000 C   0  0  0  0  0  0  0  0  0  0  0  0
   -3.3025   -4.0051    0.0000 C   0  0  0  0  0  0  0  0  0  0  0  0
   -3.1458   -5.4969    0.0000 C   0  0  0  0  0  0  0  0  0  0  0  0
   -1.7754   -6.1070    0.0000 C   0  0  0  0  0  0  0  0  0  0  0  0
   -0.5619   -5.2253    0.0000 C   0  0  0  0  0  0  0  0  0  0  0  0
   -0.7187   -3.7336    0.0000 C   0  0  0  0  0  0  0  0  0  0  0  0
   -1.0323    0.7500    0.0000 C   0  0  0  0  0  0  0  0  0  0  0  0
   -2.2841    1.5763    0.0000 N   0  0  0  0  0  0  0  0  0  0  0  0
  1  2  2  0
  2  3  1  0
  3  4  1  0
  4  5  1  0
  5  6  2  0
  6  7  1  0
  7  8  2  0
  8  9  1  0
  9 10  1  0
 10 11  1  0
 11 12  2  0
 11 13  1  0
 13 14  2  0
 14 15  1  0
 15 16  2  0
 16 17  1  0
 16 18  1  0
 18 19  1  0
 19 20  1  0
 19 21  1  0
 19 22  1  0
 18 23  2  0
  9 24  2  0
  4 25  2  0
 25 26  1  0
 26 27  1  0
 27 28  2  0
 28 29  1  0
 29 30  1  0
 30 31  1  0
 31 32  2  0
 32 33  1  0
 33 34  2  0
 34 35  1  0
 35 36  2  0
 29 37  1  0
 37 38  1  0
 38  2  1  0
 24  5  1  0
 37 26  2  0
 23 13  1  0
 36 31  1  0
M  END
>  <Compound_ID>  (503) 
CHEMBL1917776

>  <Molecule Name>  (503) 
nan

>  <Molecular Weight>  (503) 
537.93

>  <AlogP>  (503) 
6.32

>  <Smiles>  (503) 
O=C1CC(c2cccc(NC(=O)c3ccc(Cl)c(C(F)(F)F)c3)c2)=Nc2cnn(Cc3ccccc3)c2N1

>  <Standard Type>  (503) 
Inhibition

>  <Standard Relation>  (503) 
'='

>  <Standard Units>  (503) 
%

>  <Standard Value>  (503) 
0.0

>  <Assay ChEMBL ID>  (503) 
CHEMBL1921419

>  <Assay Description>  (503) 
Inhibition of Alk at 10 uM

>  <BAO Format ID>  (503) 
BAO_0000357

>  <BAO Label>  (503) 
single protein format

>  <Assay Organism>  (503) 
None

>  <Target ChEMBL ID>  (503) 
CHEMBL4247

>  <Target Name>  (503) 
ALK tyrosine kinase receptor

>  <Target Organism>  (503) 
Homo sapiens

>  <Target Type>  (503) 
SINGLE PROTEIN

>  <Document ChEMBL ID>  (503) 
CHEMBL1914457

>  <Source Description>  (503) 
Scientific Literature

>  <Document Journal>  (503) 
Bioorg Med Chem

>  <Document Year>  (503) 
2011.0

>  <Active>  (503) 
0.0

>  <bits>  (503) 
<rdkit.DataStructs.cDataStructs.ExplicitBitVect object at 0x000002422C1BA810>

>  <Group>  (503) 
G2

$$$$

     RDKit          2D

 29 33  0  0  0  0  0  0  0  0999 V2000
    5.8049  -11.6504    0.0000 F   0  0  0  0  0  0  0  0  0  0  0  0
    4.3783  -11.1868    0.0000 C   0  0  0  0  0  0  0  0  0  0  0  0
    3.2636  -12.1905    0.0000 C   0  0  0  0  0  0  0  0  0  0  0  0
    1.8370  -11.7270    0.0000 C   0  0  0  0  0  0  0  0  0  0  0  0
    1.5251  -10.2598    0.0000 C   0  0  0  0  0  0  0  0  0  0  0  0
    0.0986   -9.7963    0.0000 C   0  0  0  0  0  0  0  0  0  0  0  0
   -1.0162  -10.8000    0.0000 C   0  0  0  0  0  0  0  0  0  0  0  0
   -2.4427  -10.3364    0.0000 N   0  0  0  0  0  0  0  0  0  0  0  0
   -2.7546   -8.8692    0.0000 C   0  0  0  0  0  0  0  0  0  0  0  0
   -4.0537   -8.1192    0.0000 N   0  0  0  0  0  0  0  0  0  0  0  0
   -3.7418   -6.6520    0.0000 N   0  0  0  0  0  0  0  0  0  0  0  0
   -2.2500   -6.4952    0.0000 C   0  0  0  0  0  0  0  0  0  0  0  0
   -1.5000   -5.1962    0.0000 C   0  0  0  0  0  0  0  0  0  0  0  0
   -2.7990   -4.4462    0.0000 F   0  0  0  0  0  0  0  0  0  0  0  0
   -0.2010   -5.9462    0.0000 F   0  0  0  0  0  0  0  0  0  0  0  0
   -0.7500   -3.8971    0.0000 C   0  0  0  0  0  0  0  0  0  0  0  0
    0.7500   -3.8971    0.0000 C   0  0  0  0  0  0  0  0  0  0  0  0
    1.5000   -2.5981    0.0000 C   0  0  0  0  0  0  0  0  0  0  0  0
    0.7500   -1.2990    0.0000 C   0  0  0  0  0  0  0  0  0  0  0  0
    1.5000    0.0000    0.0000 N   0  0  0  0  0  0  0  0  0  0  0  0
    0.7500    1.2990    0.0000 C   0  0  0  0  0  0  0  0  0  0  0  0
   -0.7500    1.2990    0.0000 C   0  0  0  0  0  0  0  0  0  0  0  0
   -1.5000    0.0000    0.0000 C   0  0  0  0  0  0  0  0  0  0  0  0
   -0.7500   -1.2990    0.0000 C   0  0  0  0  0  0  0  0  0  0  0  0
   -1.5000   -2.5981    0.0000 C   0  0  0  0  0  0  0  0  0  0  0  0
   -1.6399   -7.8655    0.0000 N   0  0  0  0  0  0  0  0  0  0  0  0
   -0.2133   -8.3290    0.0000 N   0  0  0  0  0  0  0  0  0  0  0  0
    2.6399   -9.2561    0.0000 C   0  0  0  0  0  0  0  0  0  0  0  0
    4.0664   -9.7196    0.0000 C   0  0  0  0  0  0  0  0  0  0  0  0
  1  2  1  0
  2  3  2  0
  3  4  1  0
  4  5  2  0
  5  6  1  0
  6  7  1  0
  7  8  2  0
  8  9  1  0
  9 10  2  0
 10 11  1  0
 11 12  2  0
 12 13  1  0
 13 14  1  0
 13 15  1  0
 13 16  1  0
 16 17  2  0
 17 18  1  0
 18 19  2  0
 19 20  1  0
 20 21  2  0
 21 22  1  0
 22 23  2  0
 23 24  1  0
 24 25  2  0
 12 26  1  0
 26 27  1  0
  5 28  1  0
 28 29  2  0
 29  2  1  0
 27  6  2  0
 26  9  1  0
 25 16  1  0
 24 19  1  0
M  END
>  <Compound_ID>  (504) 
CHEMBL3797579

>  <Molecule Name>  (504) 
nan

>  <Molecular Weight>  (504) 
392.34

>  <AlogP>  (504) 
4.01

>  <Smiles>  (504) 
Fc1ccc(-c2cnc3nnc(C(F)(F)c4ccc5ncccc5c4)n3n2)cc1

>  <Standard Type>  (504) 
Inhibition

>  <Standard Relation>  (504) 
'='

>  <Standard Units>  (504) 
%

>  <Standard Value>  (504) 
2.1

>  <Assay ChEMBL ID>  (504) 
CHEMBL3801254

>  <Assay Description>  (504) 
Inhibition of recombinant ALK (unknown origin) using poly (Glu, Tyr) 4:1 as substrate at 1000 nM incubated for 60 mins by ELISA relative to control

>  <BAO Format ID>  (504) 
BAO_0000357

>  <BAO Label>  (504) 
single protein format

>  <Assay Organism>  (504) 
Homo sapiens

>  <Target ChEMBL ID>  (504) 
CHEMBL4247

>  <Target Name>  (504) 
ALK tyrosine kinase receptor

>  <Target Organism>  (504) 
Homo sapiens

>  <Target Type>  (504) 
SINGLE PROTEIN

>  <Document ChEMBL ID>  (504) 
CHEMBL3797175

>  <Source Description>  (504) 
Scientific Literature

>  <Document Journal>  (504) 
Eur J Med Chem

>  <Document Year>  (504) 
2016.0

>  <Active>  (504) 
0.0

>  <bits>  (504) 
<rdkit.DataStructs.cDataStructs.ExplicitBitVect object at 0x000002422C1BB4C0>

>  <Group>  (504) 
G2

$$$$

     RDKit          2D

 23 26  0  0  0  0  0  0  0  0999 V2000
   -6.4937   -2.7256    0.0000 O   0  0  0  0  0  0  0  0  0  0  0  0
   -5.0672   -3.1891    0.0000 C   0  0  0  0  0  0  0  0  0  0  0  0
   -4.6036   -4.6157    0.0000 N   0  0  0  0  0  0  0  0  0  0  0  0
   -3.1036   -4.6157    0.0000 C   0  0  0  0  0  0  0  0  0  0  0  0
   -2.2220   -5.8293    0.0000 O   0  0  0  0  0  0  0  0  0  0  0  0
   -2.6401   -3.1891    0.0000 C   0  0  0  0  0  0  0  0  0  0  0  0
   -1.2135   -2.7256    0.0000 N   0  0  0  0  0  0  0  0  0  0  0  0
   -0.0000   -3.6073    0.0000 C   0  0  0  0  0  0  0  0  0  0  0  0
    1.2135   -2.7256    0.0000 C   0  0  0  0  0  0  0  0  0  0  0  0
    0.7500   -1.2990    0.0000 C   0  0  0  0  0  0  0  0  0  0  0  0
    1.5000    0.0000    0.0000 C   0  0  0  0  0  0  0  0  0  0  0  0
    0.7500    1.2990    0.0000 C   0  0  0  0  0  0  0  0  0  0  0  0
   -0.7500    1.2990    0.0000 C   0  0  0  0  0  0  0  0  0  0  0  0
   -1.5000    0.0000    0.0000 C   0  0  0  0  0  0  0  0  0  0  0  0
   -0.7500   -1.2990    0.0000 C   0  0  0  0  0  0  0  0  0  0  0  0
   -3.8536   -2.3075    0.0000 C   0  0  0  0  0  0  0  0  0  0  0  0
   -3.8536   -0.8075    0.0000 C   0  0  0  0  0  0  0  0  0  0  0  0
   -2.5546   -0.0575    0.0000 C   0  0  0  0  0  0  0  0  0  0  0  0
   -2.5546    1.4425    0.0000 C   0  0  0  0  0  0  0  0  0  0  0  0
   -3.8536    2.1925    0.0000 C   0  0  0  0  0  0  0  0  0  0  0  0
   -3.8536    3.6925    0.0000 Cl  0  0  0  0  0  0  0  0  0  0  0  0
   -5.1527    1.4425    0.0000 C   0  0  0  0  0  0  0  0  0  0  0  0
   -5.1527   -0.0575    0.0000 C   0  0  0  0  0  0  0  0  0  0  0  0
  1  2  2  0
  2  3  1  0
  3  4  1  0
  4  5  2  0
  4  6  1  0
  6  7  1  0
  7  8  1  0
  8  9  1  0
  9 10  1  0
 10 11  2  0
 11 12  1  0
 12 13  2  0
 13 14  1  0
 14 15  2  0
  6 16  2  0
 16 17  1  0
 17 18  2  0
 18 19  1  0
 19 20  2  0
 20 21  1  0
 20 22  1  0
 22 23  2  0
 16  2  1  0
 23 17  1  0
 15  7  1  0
 15 10  1  0
M  END
>  <Compound_ID>  (505) 
CHEMBL156524

>  <Molecule Name>  (505) 
nan

>  <Molecular Weight>  (505) 
324.77

>  <AlogP>  (505) 
2.77

>  <Smiles>  (505) 
O=C1NC(=O)C(N2CCc3ccccc32)=C1c1ccc(Cl)cc1

>  <Standard Type>  (505) 
Inhibition

>  <Standard Relation>  (505) 
'='

>  <Standard Units>  (505) 
%

>  <Standard Value>  (505) 
4.31

>  <Assay ChEMBL ID>  (505) 
CHEMBL1962241

>  <Assay Description>  (505) 
GSK_PKIS: ALK mean inhibition at 1 uM [Nanosyn]

>  <BAO Format ID>  (505) 
BAO_0000357

>  <BAO Label>  (505) 
single protein format

>  <Assay Organism>  (505) 
None

>  <Target ChEMBL ID>  (505) 
CHEMBL4247

>  <Target Name>  (505) 
ALK tyrosine kinase receptor

>  <Target Organism>  (505) 
Homo sapiens

>  <Target Type>  (505) 
SINGLE PROTEIN

>  <Document ChEMBL ID>  (505) 
CHEMBL1961873

>  <Source Description>  (505) 
GSK Published Kinase Inhibitor Set

>  <Document Journal>  (505) 
nan

>  <Document Year>  (505) 
nan

>  <Active>  (505) 
0.0

>  <bits>  (505) 
<rdkit.DataStructs.cDataStructs.ExplicitBitVect object at 0x000002422C1BA5E0>

>  <Group>  (505) 
G2

$$$$

     RDKit          2D

 17 18  0  0  0  0  0  0  0  0999 V2000
    3.7500   -1.2990    0.0000 C   0  0  0  0  0  0  0  0  0  0  0  0
    3.0000    0.0000    0.0000 O   0  0  0  0  0  0  0  0  0  0  0  0
    1.5000    0.0000    0.0000 C   0  0  0  0  0  0  0  0  0  0  0  0
    0.7500   -1.2990    0.0000 C   0  0  0  0  0  0  0  0  0  0  0  0
   -0.7500   -1.2990    0.0000 C   0  0  0  0  0  0  0  0  0  0  0  0
   -1.5000    0.0000    0.0000 C   0  0  0  0  0  0  0  0  0  0  0  0
   -3.0000    0.0000    0.0000 C   0  0  0  0  0  0  0  0  0  0  0  0
   -3.7500    1.2990    0.0000 C   0  0  0  0  0  0  0  0  0  0  0  0
   -5.2500    1.2990    0.0000 C   0  0  0  0  0  0  0  0  0  0  0  0
   -6.0000    0.0000    0.0000 N   0  0  0  0  0  0  0  0  0  0  0  0
   -5.2500   -1.2990    0.0000 C   0  0  0  0  0  0  0  0  0  0  0  0
   -3.7500   -1.2990    0.0000 C   0  0  0  0  0  0  0  0  0  0  0  0
   -0.7500    1.2990    0.0000 C   0  0  0  0  0  0  0  0  0  0  0  0
    0.7500    1.2990    0.0000 C   0  0  0  0  0  0  0  0  0  0  0  0
    1.5000    2.5981    0.0000 C   0  0  0  0  0  0  0  0  0  0  0  0
    3.0000    2.5981    0.0000 N   0  0  0  0  0  0  0  0  0  0  0  0
    0.7500    3.8971    0.0000 O   0  0  0  0  0  0  0  0  0  0  0  0
  1  2  1  0
  2  3  1  0
  3  4  2  0
  4  5  1  0
  5  6  2  0
  6  7  1  0
  7  8  2  0
  8  9  1  0
  9 10  2  0
 10 11  1  0
 11 12  2  0
  6 13  1  0
 13 14  2  0
 14 15  1  0
 15 16  1  0
 15 17  2  0
 14  3  1  0
 12  7  1  0
M  END
>  <Compound_ID>  (506) 
CHEMBL231013

>  <Molecule Name>  (506) 
GSK-605714A

>  <Molecular Weight>  (506) 
228.25

>  <AlogP>  (506) 
1.86

>  <Smiles>  (506) 
COc1ccc(-c2ccncc2)cc1C(N)=O

>  <Standard Type>  (506) 
Inhibition

>  <Standard Relation>  (506) 
'='

>  <Standard Units>  (506) 
%

>  <Standard Value>  (506) 
6.43

>  <Assay ChEMBL ID>  (506) 
CHEMBL1962241

>  <Assay Description>  (506) 
GSK_PKIS: ALK mean inhibition at 1 uM [Nanosyn]

>  <BAO Format ID>  (506) 
BAO_0000357

>  <BAO Label>  (506) 
single protein format

>  <Assay Organism>  (506) 
None

>  <Target ChEMBL ID>  (506) 
CHEMBL4247

>  <Target Name>  (506) 
ALK tyrosine kinase receptor

>  <Target Organism>  (506) 
Homo sapiens

>  <Target Type>  (506) 
SINGLE PROTEIN

>  <Document ChEMBL ID>  (506) 
CHEMBL1961873

>  <Source Description>  (506) 
GSK Published Kinase Inhibitor Set

>  <Document Journal>  (506) 
nan

>  <Document Year>  (506) 
nan

>  <Active>  (506) 
0.0

>  <bits>  (506) 
<rdkit.DataStructs.cDataStructs.ExplicitBitVect object at 0x000002422C1B9700>

>  <Group>  (506) 
G2

$$$$

     RDKit          2D

 26 28  0  0  0  0  0  0  0  0999 V2000
    1.8478   -6.4639    0.0000 O   0  0  0  0  0  0  0  0  0  0  0  0
    2.0046   -4.9721    0.0000 C   0  0  0  0  0  0  0  0  0  0  0  0
    3.3037   -4.2221    0.0000 N   0  0  0  0  0  0  0  0  0  0  0  0
    2.9918   -2.7549    0.0000 C   0  0  0  0  0  0  0  0  0  0  0  0
    3.9955   -1.6402    0.0000 O   0  0  0  0  0  0  0  0  0  0  0  0
    1.5000   -2.5981    0.0000 C   0  0  0  0  0  0  0  0  0  0  0  0
    0.7500   -1.2990    0.0000 C   0  0  0  0  0  0  0  0  0  0  0  0
    1.5000    0.0000    0.0000 C   0  0  0  0  0  0  0  0  0  0  0  0
    0.7500    1.2990    0.0000 C   0  0  0  0  0  0  0  0  0  0  0  0
   -0.7500    1.2990    0.0000 C   0  0  0  0  0  0  0  0  0  0  0  0
   -1.5000    0.0000    0.0000 C   0  0  0  0  0  0  0  0  0  0  0  0
   -3.0000    0.0000    0.0000 N   0  0  0  0  0  4  0  0  0  0  0  0
   -3.7500   -1.2990    0.0000 O   0  0  0  0  0  0  0  0  0  0  0  0
   -3.7500    1.2990    0.0000 O   0  0  0  0  0  1  0  0  0  0  0  0
   -0.7500   -1.2990    0.0000 C   0  0  0  0  0  0  0  0  0  0  0  0
    0.8899   -3.9684    0.0000 C   0  0  0  0  0  0  0  0  0  0  0  0
   -0.5773   -4.2803    0.0000 N   0  0  0  0  0  0  0  0  0  0  0  0
   -1.0409   -5.7068    0.0000 C   0  0  0  0  0  0  0  0  0  0  0  0
   -2.5081   -6.0187    0.0000 C   0  0  0  0  0  0  0  0  0  0  0  0
   -2.9716   -7.4453    0.0000 C   0  0  0  0  0  0  0  0  0  0  0  0
   -4.4388   -7.7572    0.0000 Cl  0  0  0  0  0  0  0  0  0  0  0  0
   -1.9679   -8.5600    0.0000 C   0  0  0  0  0  0  0  0  0  0  0  0
   -2.4314   -9.9866    0.0000 O   0  0  0  0  0  0  0  0  0  0  0  0
   -0.5007   -8.2481    0.0000 C   0  0  0  0  0  0  0  0  0  0  0  0
    0.5030   -9.3629    0.0000 Cl  0  0  0  0  0  0  0  0  0  0  0  0
   -0.0372   -6.8216    0.0000 C   0  0  0  0  0  0  0  0  0  0  0  0
  1  2  2  0
  2  3  1  0
  3  4  1  0
  4  5  2  0
  4  6  1  0
  6  7  1  0
  7  8  2  0
  8  9  1  0
  9 10  2  0
 10 11  1  0
 11 12  1  0
 12 13  2  0
 12 14  1  0
 11 15  2  0
  6 16  2  0
 16 17  1  0
 17 18  1  0
 18 19  2  0
 19 20  1  0
 20 21  1  0
 20 22  2  0
 22 23  1  0
 22 24  1  0
 24 25  1  0
 24 26  2  0
 16  2  1  0
 26 18  1  0
 15  7  1  0
M  CHG  2  12   1  14  -1
M  END
>  <Compound_ID>  (507) 
CHEMBL352222

>  <Molecule Name>  (507) 
nan

>  <Molecular Weight>  (507) 
394.17

>  <AlogP>  (507) 
3.09

>  <Smiles>  (507) 
O=C1NC(=O)C(c2cccc([N+](=O)[O-])c2)=C1Nc1cc(Cl)c(O)c(Cl)c1

>  <Standard Type>  (507) 
Inhibition

>  <Standard Relation>  (507) 
'='

>  <Standard Units>  (507) 
%

>  <Standard Value>  (507) 
3.11

>  <Assay ChEMBL ID>  (507) 
CHEMBL1962241

>  <Assay Description>  (507) 
GSK_PKIS: ALK mean inhibition at 1 uM [Nanosyn]

>  <BAO Format ID>  (507) 
BAO_0000357

>  <BAO Label>  (507) 
single protein format

>  <Assay Organism>  (507) 
None

>  <Target ChEMBL ID>  (507) 
CHEMBL4247

>  <Target Name>  (507) 
ALK tyrosine kinase receptor

>  <Target Organism>  (507) 
Homo sapiens

>  <Target Type>  (507) 
SINGLE PROTEIN

>  <Document ChEMBL ID>  (507) 
CHEMBL1961873

>  <Source Description>  (507) 
GSK Published Kinase Inhibitor Set

>  <Document Journal>  (507) 
nan

>  <Document Year>  (507) 
nan

>  <Active>  (507) 
0.0

>  <bits>  (507) 
<rdkit.DataStructs.cDataStructs.ExplicitBitVect object at 0x000002422F1E2E30>

>  <Group>  (507) 
G2

$$$$

     RDKit          2D

 23 25  0  0  0  0  0  0  0  0999 V2000
    3.0000   -5.1962    0.0000 C   0  0  0  0  0  0  0  0  0  0  0  0
    1.5000   -5.1962    0.0000 O   0  0  0  0  0  0  0  0  0  0  0  0
    0.7500   -3.8971    0.0000 C   0  0  0  0  0  0  0  0  0  0  0  0
    1.5000   -2.5981    0.0000 C   0  0  0  0  0  0  0  0  0  0  0  0
    0.7500   -1.2990    0.0000 C   0  0  0  0  0  0  0  0  0  0  0  0
    1.5000    0.0000    0.0000 N   0  0  0  0  0  0  0  0  0  0  0  0
    0.7500    1.2990    0.0000 C   0  0  0  0  0  0  0  0  0  0  0  0
   -0.7500    1.2990    0.0000 N   0  0  0  0  0  0  0  0  0  0  0  0
   -1.5000    0.0000    0.0000 C   0  0  0  0  0  0  0  0  0  0  0  0
   -3.0000    0.0000    0.0000 N   0  0  0  0  0  0  0  0  0  0  0  0
   -3.7500    1.2990    0.0000 C   0  0  0  0  0  0  0  0  0  0  0  0
   -3.0000    2.5981    0.0000 C   0  0  0  0  0  0  0  0  0  0  0  0
   -3.7500    3.8971    0.0000 C   0  0  0  0  0  0  0  0  0  0  0  0
   -5.2500    3.8971    0.0000 C   0  0  0  0  0  0  0  0  0  0  0  0
   -6.0000    5.1962    0.0000 C   0  0  0  0  0  0  0  0  0  0  0  0
   -6.0000    2.5981    0.0000 C   0  0  0  0  0  0  0  0  0  0  0  0
   -7.5000    2.5981    0.0000 O   0  0  0  0  0  0  0  0  0  0  0  0
   -5.2500    1.2990    0.0000 C   0  0  0  0  0  0  0  0  0  0  0  0
   -0.7500   -1.2990    0.0000 C   0  0  0  0  0  0  0  0  0  0  0  0
   -1.5000   -2.5981    0.0000 C   0  0  0  0  0  0  0  0  0  0  0  0
   -0.7500   -3.8971    0.0000 C   0  0  0  0  0  0  0  0  0  0  0  0
   -1.5000   -5.1962    0.0000 O   0  0  0  0  0  0  0  0  0  0  0  0
   -3.0000   -5.1962    0.0000 C   0  0  0  0  0  0  0  0  0  0  0  0
  1  2  1  0
  2  3  1  0
  3  4  2  0
  4  5  1  0
  5  6  2  0
  6  7  1  0
  7  8  2  0
  8  9  1  0
  9 10  1  0
 10 11  1  0
 11 12  2  0
 12 13  1  0
 13 14  2  0
 14 15  1  0
 14 16  1  0
 16 17  1  0
 16 18  2  0
  9 19  2  0
 19 20  1  0
 20 21  2  0
 21 22  1  0
 22 23  1  0
 21  3  1  0
 19  5  1  0
 18 11  1  0
M  END
>  <Compound_ID>  (508) 
CHEMBL1909357

>  <Molecule Name>  (508) 
GW410563A

>  <Molecular Weight>  (508) 
347.8

>  <AlogP>  (508) 
3.4

>  <Smiles>  (508) 
COc1cc2ncnc(Nc3ccc(C)c(O)c3)c2cc1OC

>  <Standard Type>  (508) 
Inhibition

>  <Standard Relation>  (508) 
'='

>  <Standard Units>  (508) 
%

>  <Standard Value>  (508) 
13.84

>  <Assay ChEMBL ID>  (508) 
CHEMBL1962241

>  <Assay Description>  (508) 
GSK_PKIS: ALK mean inhibition at 1 uM [Nanosyn]

>  <BAO Format ID>  (508) 
BAO_0000357

>  <BAO Label>  (508) 
single protein format

>  <Assay Organism>  (508) 
None

>  <Target ChEMBL ID>  (508) 
CHEMBL4247

>  <Target Name>  (508) 
ALK tyrosine kinase receptor

>  <Target Organism>  (508) 
Homo sapiens

>  <Target Type>  (508) 
SINGLE PROTEIN

>  <Document ChEMBL ID>  (508) 
CHEMBL1961873

>  <Source Description>  (508) 
GSK Published Kinase Inhibitor Set

>  <Document Journal>  (508) 
nan

>  <Document Year>  (508) 
nan

>  <Active>  (508) 
0.0

>  <bits>  (508) 
<rdkit.DataStructs.cDataStructs.ExplicitBitVect object at 0x000002422F1E2C00>

>  <Group>  (508) 
G2

$$$$

     RDKit          2D

 32 36  0  0  0  0  0  0  0  0999 V2000
   -1.2990  -10.3573    0.0000 C   0  0  0  0  0  0  0  0  0  0  0  0
    0.0000   -9.6073    0.0000 O   0  0  0  0  0  0  0  0  0  0  0  0
    0.0000   -8.1073    0.0000 C   0  0  0  0  0  0  0  0  0  0  0  0
   -1.2990   -7.3573    0.0000 C   0  0  0  0  0  0  0  0  0  0  0  0
   -1.2990   -5.8573    0.0000 C   0  0  0  0  0  0  0  0  0  0  0  0
   -0.0000   -5.1073    0.0000 C   0  0  0  0  0  0  0  0  0  0  0  0
   -0.0000   -3.6073    0.0000 C   0  0  0  0  0  0  0  0  0  0  0  0
    1.2135   -2.7256    0.0000 N   0  0  0  0  0  0  0  0  0  0  0  0
    0.7500   -1.2990    0.0000 N   0  0  0  0  0  0  0  0  0  0  0  0
    1.5000    0.0000    0.0000 N   0  0  0  0  0  0  0  0  0  0  0  0
    0.7500    1.2990    0.0000 C   0  0  0  0  0  0  0  0  0  0  0  0
   -0.7500    1.2990    0.0000 C   0  0  0  0  0  0  0  0  0  0  0  0
   -1.5000    0.0000    0.0000 C   0  0  0  0  0  0  0  0  0  0  0  0
   -0.7500   -1.2990    0.0000 C   0  0  0  0  0  0  0  0  0  0  0  0
   -1.2135   -2.7256    0.0000 C   0  0  0  0  0  0  0  0  0  0  0  0
   -2.6401   -3.1891    0.0000 C   0  0  0  0  0  0  0  0  0  0  0  0
   -3.7548   -2.1855    0.0000 C   0  0  0  0  0  0  0  0  0  0  0  0
   -5.1814   -2.6490    0.0000 C   0  0  0  0  0  0  0  0  0  0  0  0
   -5.4933   -4.1162    0.0000 N   0  0  0  0  0  0  0  0  0  0  0  0
   -4.3786   -5.1199    0.0000 C   0  0  0  0  0  0  0  0  0  0  0  0
   -4.6904   -6.5871    0.0000 N   0  0  0  0  0  0  0  0  0  0  0  0
   -6.1170   -7.0506    0.0000 C   0  0  0  0  0  0  0  0  0  0  0  0
   -7.2317   -6.0469    0.0000 C   0  0  0  0  0  0  0  0  0  0  0  0
   -8.6583   -6.5105    0.0000 C   0  0  0  0  0  0  0  0  0  0  0  0
   -8.9702   -7.9777    0.0000 C   0  0  0  0  0  0  0  0  0  0  0  0
  -10.3968   -8.4412    0.0000 F   0  0  0  0  0  0  0  0  0  0  0  0
   -7.8555   -8.9814    0.0000 C   0  0  0  0  0  0  0  0  0  0  0  0
   -8.1673  -10.4486    0.0000 F   0  0  0  0  0  0  0  0  0  0  0  0
   -6.4289   -8.5179    0.0000 C   0  0  0  0  0  0  0  0  0  0  0  0
   -2.9520   -4.6564    0.0000 N   0  0  0  0  0  0  0  0  0  0  0  0
    1.2990   -5.8573    0.0000 C   0  0  0  0  0  0  0  0  0  0  0  0
    1.2990   -7.3573    0.0000 C   0  0  0  0  0  0  0  0  0  0  0  0
  1  2  1  0
  2  3  1  0
  3  4  2  0
  4  5  1  0
  5  6  2  0
  6  7  1  0
  7  8  2  0
  8  9  1  0
  9 10  1  0
 10 11  2  0
 11 12  1  0
 12 13  2  0
 13 14  1  0
 14 15  2  0
 15 16  1  0
 16 17  2  0
 17 18  1  0
 18 19  2  0
 19 20  1  0
 20 21  1  0
 21 22  1  0
 22 23  2  0
 23 24  1  0
 24 25  2  0
 25 26  1  0
 25 27  1  0
 27 28  1  0
 27 29  2  0
 20 30  2  0
  6 31  1  0
 31 32  2  0
 32  3  1  0
 15  7  1  0
 30 16  1  0
 14  9  1  0
 29 22  1  0
M  END
>  <Compound_ID>  (509) 
CHEMBL427159

>  <Molecule Name>  (509) 
GW827396X

>  <Molecular Weight>  (509) 
430.42

>  <AlogP>  (509) 
4.88

>  <Smiles>  (509) 
COc1ccc(-c2nn3ncccc3c2-c2ccnc(Nc3ccc(F)c(F)c3)n2)cc1

>  <Standard Type>  (509) 
Inhibition

>  <Standard Relation>  (509) 
'='

>  <Standard Units>  (509) 
%

>  <Standard Value>  (509) 
2.49

>  <Assay ChEMBL ID>  (509) 
CHEMBL1962240

>  <Assay Description>  (509) 
GSK_PKIS: ALK mean inhibition at 0.1 uM [Nanosyn]

>  <BAO Format ID>  (509) 
BAO_0000357

>  <BAO Label>  (509) 
single protein format

>  <Assay Organism>  (509) 
None

>  <Target ChEMBL ID>  (509) 
CHEMBL4247

>  <Target Name>  (509) 
ALK tyrosine kinase receptor

>  <Target Organism>  (509) 
Homo sapiens

>  <Target Type>  (509) 
SINGLE PROTEIN

>  <Document ChEMBL ID>  (509) 
CHEMBL1961873

>  <Source Description>  (509) 
GSK Published Kinase Inhibitor Set

>  <Document Journal>  (509) 
nan

>  <Document Year>  (509) 
nan

>  <Active>  (509) 
0.0

>  <bits>  (509) 
<rdkit.DataStructs.cDataStructs.ExplicitBitVect object at 0x000002422F1E14D0>

>  <Group>  (509) 
G2

$$$$

     RDKit          2D

 32 35  0  0  0  0  0  0  0  0999 V2000
  -10.0849   -6.9740    0.0000 N   0  0  0  0  0  0  0  0  0  0  0  0
   -8.6583   -6.5105    0.0000 S   0  0  0  0  0  0  0  0  0  0  0  0
   -9.1218   -5.0839    0.0000 O   0  0  0  0  0  0  0  0  0  0  0  0
   -8.1948   -7.9371    0.0000 O   0  0  0  0  0  0  0  0  0  0  0  0
   -7.2317   -6.0469    0.0000 C   0  0  0  0  0  0  0  0  0  0  0  0
   -6.9199   -4.5797    0.0000 C   0  0  0  0  0  0  0  0  0  0  0  0
   -5.4933   -4.1162    0.0000 C   0  0  0  0  0  0  0  0  0  0  0  0
   -4.3786   -5.1199    0.0000 C   0  0  0  0  0  0  0  0  0  0  0  0
   -2.9520   -4.6564    0.0000 N   0  0  0  0  0  0  0  0  0  0  0  0
   -2.6401   -3.1891    0.0000 N   0  0  0  0  0  0  0  0  0  0  0  0
   -1.2135   -2.7256    0.0000 C   0  0  0  0  0  0  0  0  0  0  0  0
   -0.0000   -3.6073    0.0000 C   0  0  0  0  0  0  0  0  0  0  0  0
    0.0000   -5.1073    0.0000 O   0  0  0  0  0  0  0  0  0  0  0  0
    1.2135   -2.7256    0.0000 N   0  0  0  0  0  0  0  0  0  0  0  0
    0.7500   -1.2990    0.0000 C   0  0  0  0  0  0  0  0  0  0  0  0
    1.5000    0.0000    0.0000 C   0  0  0  0  0  0  0  0  0  0  0  0
    0.7500    1.2990    0.0000 C   0  0  0  0  0  0  0  0  0  0  0  0
   -0.7500    1.2990    0.0000 C   0  0  0  0  0  0  0  0  0  0  0  0
   -1.5000    2.5981    0.0000 C   0  0  0  0  0  0  0  0  0  0  0  0
   -3.0000    2.5981    0.0000 O   0  0  0  0  0  0  0  0  0  0  0  0
   -0.7500    3.8971    0.0000 N   0  0  0  0  0  0  0  0  0  0  0  0
   -1.5000    5.1962    0.0000 C   0  0  0  0  0  0  0  0  0  0  0  0
   -0.7500    6.4952    0.0000 C   0  0  0  0  0  0  0  0  0  0  0  0
   -1.5000    7.7942    0.0000 C   0  0  0  0  0  0  0  0  0  0  0  0
   -2.9918    7.9510    0.0000 C   0  0  0  0  0  0  0  0  0  0  0  0
   -3.3037    9.4182    0.0000 N   0  0  0  0  0  0  0  0  0  0  0  0
   -2.0046   10.1682    0.0000 C   0  0  0  0  0  0  0  0  0  0  0  0
   -0.8899    9.1645    0.0000 N   0  0  0  0  0  0  0  0  0  0  0  0
   -1.5000    0.0000    0.0000 C   0  0  0  0  0  0  0  0  0  0  0  0
   -0.7500   -1.2990    0.0000 C   0  0  0  0  0  0  0  0  0  0  0  0
   -4.6904   -6.5871    0.0000 C   0  0  0  0  0  0  0  0  0  0  0  0
   -6.1170   -7.0506    0.0000 C   0  0  0  0  0  0  0  0  0  0  0  0
  1  2  1  0
  2  3  2  0
  2  4  2  0
  2  5  1  0
  5  6  2  0
  6  7  1  0
  7  8  2  0
  8  9  1  0
  9 10  1  0
 10 11  2  0
 11 12  1  0
 12 13  2  0
 12 14  1  0
 14 15  1  0
 15 16  2  0
 16 17  1  0
 17 18  2  0
 18 19  1  0
 19 20  2  0
 19 21  1  0
 21 22  1  0
 22 23  1  0
 23 24  1  0
 24 25  2  0
 25 26  1  0
 26 27  1  0
 27 28  2  0
 18 29  1  0
 29 30  2  0
  8 31  1  0
 31 32  2  0
 32  5  1  0
 30 11  1  0
 30 15  1  0
 28 24  1  0
M  END
>  <Compound_ID>  (510) 
CHEMBL272028

>  <Molecule Name>  (510) 
GW300660X

>  <Molecular Weight>  (510) 
453.48

>  <AlogP>  (510) 
0.8

>  <Smiles>  (510) 
NS(=O)(=O)c1ccc(N/N=C2\C(=O)Nc3ccc(C(=O)NCCc4c[nH]cn4)cc32)cc1

>  <Standard Type>  (510) 
Inhibition

>  <Standard Relation>  (510) 
'='

>  <Standard Units>  (510) 
%

>  <Standard Value>  (510) 
3.67

>  <Assay ChEMBL ID>  (510) 
CHEMBL1962240

>  <Assay Description>  (510) 
GSK_PKIS: ALK mean inhibition at 0.1 uM [Nanosyn]

>  <BAO Format ID>  (510) 
BAO_0000357

>  <BAO Label>  (510) 
single protein format

>  <Assay Organism>  (510) 
None

>  <Target ChEMBL ID>  (510) 
CHEMBL4247

>  <Target Name>  (510) 
ALK tyrosine kinase receptor

>  <Target Organism>  (510) 
Homo sapiens

>  <Target Type>  (510) 
SINGLE PROTEIN

>  <Document ChEMBL ID>  (510) 
CHEMBL1961873

>  <Source Description>  (510) 
GSK Published Kinase Inhibitor Set

>  <Document Journal>  (510) 
nan

>  <Document Year>  (510) 
nan

>  <Active>  (510) 
0.0

>  <bits>  (510) 
<rdkit.DataStructs.cDataStructs.ExplicitBitVect object at 0x000002422F1E1620>

>  <Group>  (510) 
G2

$$$$

     RDKit          2D

 27 30  0  0  0  0  0  0  0  0999 V2000
  -10.0849   -6.9740    0.0000 N   0  0  0  0  0  0  0  0  0  0  0  0
   -8.6583   -6.5105    0.0000 S   0  0  0  0  0  0  0  0  0  0  0  0
   -9.1218   -5.0839    0.0000 O   0  0  0  0  0  0  0  0  0  0  0  0
   -8.1948   -7.9371    0.0000 O   0  0  0  0  0  0  0  0  0  0  0  0
   -7.2317   -6.0469    0.0000 C   0  0  0  0  0  0  0  0  0  0  0  0
   -6.9199   -4.5797    0.0000 C   0  0  0  0  0  0  0  0  0  0  0  0
   -5.4933   -4.1162    0.0000 C   0  0  0  0  0  0  0  0  0  0  0  0
   -4.3786   -5.1199    0.0000 C   0  0  0  0  0  0  0  0  0  0  0  0
   -2.9520   -4.6564    0.0000 N   0  0  0  0  0  0  0  0  0  0  0  0
   -2.6401   -3.1891    0.0000 N   0  0  0  0  0  0  0  0  0  0  0  0
   -1.2135   -2.7256    0.0000 C   0  0  0  0  0  0  0  0  0  0  0  0
   -0.0000   -3.6073    0.0000 C   0  0  0  0  0  0  0  0  0  0  0  0
    0.0000   -5.1073    0.0000 O   0  0  0  0  0  0  0  0  0  0  0  0
    1.2135   -2.7256    0.0000 N   0  0  0  0  0  0  0  0  0  0  0  0
    0.7500   -1.2990    0.0000 C   0  0  0  0  0  0  0  0  0  0  0  0
    1.5000    0.0000    0.0000 C   0  0  0  0  0  0  0  0  0  0  0  0
    0.7500    1.2990    0.0000 C   0  0  0  0  0  0  0  0  0  0  0  0
   -0.7500    1.2990    0.0000 C   0  0  0  0  0  0  0  0  0  0  0  0
   -1.5000    2.5981    0.0000 C   0  0  0  0  0  0  0  0  0  0  0  0
   -2.9918    2.7549    0.0000 C   0  0  0  0  0  0  0  0  0  0  0  0
   -3.3037    4.2221    0.0000 N   0  0  0  0  0  0  0  0  0  0  0  0
   -2.0046    4.9721    0.0000 C   0  0  0  0  0  0  0  0  0  0  0  0
   -0.8899    3.9684    0.0000 O   0  0  0  0  0  0  0  0  0  0  0  0
   -1.5000    0.0000    0.0000 C   0  0  0  0  0  0  0  0  0  0  0  0
   -0.7500   -1.2990    0.0000 C   0  0  0  0  0  0  0  0  0  0  0  0
   -4.6904   -6.5871    0.0000 C   0  0  0  0  0  0  0  0  0  0  0  0
   -6.1170   -7.0506    0.0000 C   0  0  0  0  0  0  0  0  0  0  0  0
  1  2  1  0
  2  3  2  0
  2  4  2  0
  2  5  1  0
  5  6  2  0
  6  7  1  0
  7  8  2  0
  8  9  1  0
  9 10  1  0
 10 11  2  0
 11 12  1  0
 12 13  2  0
 12 14  1  0
 14 15  1  0
 15 16  2  0
 16 17  1  0
 17 18  2  0
 18 19  1  0
 19 20  2  0
 20 21  1  0
 21 22  2  0
 22 23  1  0
 18 24  1  0
 24 25  2  0
  8 26  1  0
 26 27  2  0
 27  5  1  0
 25 11  1  0
 25 15  1  0
 23 19  1  0
M  END
>  <Compound_ID>  (511) 
CHEMBL269827

>  <Molecule Name>  (511) 
GW276655X

>  <Molecular Weight>  (511) 
383.39

>  <AlogP>  (511) 
1.76

>  <Smiles>  (511) 
NS(=O)(=O)c1ccc(N/N=C2\C(=O)Nc3ccc(-c4cnco4)cc32)cc1

>  <Standard Type>  (511) 
Inhibition

>  <Standard Relation>  (511) 
'='

>  <Standard Units>  (511) 
%

>  <Standard Value>  (511) 
-0.11

>  <Assay ChEMBL ID>  (511) 
CHEMBL1962241

>  <Assay Description>  (511) 
GSK_PKIS: ALK mean inhibition at 1 uM [Nanosyn]

>  <BAO Format ID>  (511) 
BAO_0000357

>  <BAO Label>  (511) 
single protein format

>  <Assay Organism>  (511) 
None

>  <Target ChEMBL ID>  (511) 
CHEMBL4247

>  <Target Name>  (511) 
ALK tyrosine kinase receptor

>  <Target Organism>  (511) 
Homo sapiens

>  <Target Type>  (511) 
SINGLE PROTEIN

>  <Document ChEMBL ID>  (511) 
CHEMBL1961873

>  <Source Description>  (511) 
GSK Published Kinase Inhibitor Set

>  <Document Journal>  (511) 
nan

>  <Document Year>  (511) 
nan

>  <Active>  (511) 
0.0

>  <bits>  (511) 
<rdkit.DataStructs.cDataStructs.ExplicitBitVect object at 0x000002422F1E1230>

>  <Group>  (511) 
G2

$$$$

     RDKit          2D

 27 30  0  0  0  0  0  0  0  0999 V2000
   -2.0143    8.6263    0.0000 C   0  0  0  0  0  0  0  0  0  0  0  0
   -3.4408    8.1628    0.0000 C   0  0  0  0  0  0  0  0  0  0  0  0
   -3.7527    6.6955    0.0000 C   0  0  0  0  0  0  0  0  0  0  0  0
   -2.6380    5.6918    0.0000 C   0  0  0  0  0  0  0  0  0  0  0  0
   -1.2114    6.1554    0.0000 O   0  0  0  0  0  0  0  0  0  0  0  0
   -2.9499    4.2246    0.0000 N   0  0  0  0  0  0  0  0  0  0  0  0
   -1.8351    3.2209    0.0000 C   0  0  0  0  0  0  0  0  0  0  0  0
   -0.4086    3.6844    0.0000 C   0  0  0  0  0  0  0  0  0  0  0  0
    0.7062    2.6807    0.0000 C   0  0  0  0  0  0  0  0  0  0  0  0
    0.3943    1.2135    0.0000 C   0  0  0  0  0  0  0  0  0  0  0  0
    1.2760    0.0000    0.0000 N   0  0  0  0  0  0  0  0  0  0  0  0
    0.3943   -1.2135    0.0000 N   0  0  0  0  0  0  0  0  0  0  0  0
   -1.0323   -0.7500    0.0000 C   0  0  0  0  0  0  0  0  0  0  0  0
   -1.0323    0.7500    0.0000 C   0  0  0  0  0  0  0  0  0  0  0  0
   -2.1470    1.7537    0.0000 C   0  0  0  0  0  0  0  0  0  0  0  0
   -5.1793    6.2320    0.0000 C   0  0  0  0  0  0  0  0  0  0  0  0
   -5.4912    4.7648    0.0000 C   0  0  0  0  0  0  0  0  0  0  0  0
   -6.9177    4.3013    0.0000 C   0  0  0  0  0  0  0  0  0  0  0  0
   -7.2296    2.8340    0.0000 C   0  0  0  0  0  0  0  0  0  0  0  0
   -6.1149    1.8303    0.0000 C   0  0  0  0  0  0  0  0  0  0  0  0
   -6.4268    0.3631    0.0000 F   0  0  0  0  0  0  0  0  0  0  0  0
   -4.6883    2.2939    0.0000 C   0  0  0  0  0  0  0  0  0  0  0  0
   -4.3764    3.7611    0.0000 C   0  0  0  0  0  0  0  0  0  0  0  0
   -6.2940    7.2357    0.0000 N   0  0  0  0  0  0  0  0  0  0  0  0
   -5.9821    8.7029    0.0000 C   0  0  0  0  0  0  0  0  0  0  0  0
   -7.0969    9.7066    0.0000 O   0  0  0  0  0  0  0  0  0  0  0  0
   -4.5556    9.1664    0.0000 N   0  0  0  0  0  0  0  0  0  0  0  0
  1  2  1  0
  2  3  2  0
  3  4  1  0
  4  5  2  0
  4  6  1  0
  6  7  1  0
  7  8  2  0
  8  9  1  0
  9 10  2  0
 10 11  1  0
 11 12  1  0
 12 13  2  0
 13 14  1  0
 14 15  2  0
  3 16  1  0
 16 17  1  0
 17 18  2  0
 18 19  1  0
 19 20  2  0
 20 21  1  0
 20 22  1  0
 22 23  2  0
 16 24  1  0
 24 25  1  0
 25 26  2  0
 25 27  1  0
 27  2  1  0
 15  7  1  0
 23 17  1  0
 14 10  1  0
M  END
>  <Compound_ID>  (512) 
CHEMBL384073

>  <Molecule Name>  (512) 
GSK-180736A

>  <Molecular Weight>  (512) 
365.37

>  <AlogP>  (512) 
2.97

>  <Smiles>  (512) 
CC1=C(C(=O)Nc2ccc3[nH]ncc3c2)C(c2ccc(F)cc2)NC(=O)N1

>  <Standard Type>  (512) 
Inhibition

>  <Standard Relation>  (512) 
'='

>  <Standard Units>  (512) 
%

>  <Standard Value>  (512) 
0.35

>  <Assay ChEMBL ID>  (512) 
CHEMBL1962240

>  <Assay Description>  (512) 
GSK_PKIS: ALK mean inhibition at 0.1 uM [Nanosyn]

>  <BAO Format ID>  (512) 
BAO_0000357

>  <BAO Label>  (512) 
single protein format

>  <Assay Organism>  (512) 
None

>  <Target ChEMBL ID>  (512) 
CHEMBL4247

>  <Target Name>  (512) 
ALK tyrosine kinase receptor

>  <Target Organism>  (512) 
Homo sapiens

>  <Target Type>  (512) 
SINGLE PROTEIN

>  <Document ChEMBL ID>  (512) 
CHEMBL1961873

>  <Source Description>  (512) 
GSK Published Kinase Inhibitor Set

>  <Document Journal>  (512) 
nan

>  <Document Year>  (512) 
nan

>  <Active>  (512) 
0.0

>  <bits>  (512) 
<rdkit.DataStructs.cDataStructs.ExplicitBitVect object at 0x000002422F1E2C70>

>  <Group>  (512) 
G2

$$$$

     RDKit          2D

 19 20  0  0  0  0  0  0  0  0999 V2000
    5.2500   -1.2990    0.0000 C   0  0  0  0  0  0  0  0  0  0  0  0
    3.7500   -1.2990    0.0000 N   0  0  0  0  0  0  0  0  0  0  0  0
    3.0000    0.0000    0.0000 C   0  0  0  0  0  0  0  0  0  0  0  0
    3.7500    1.2990    0.0000 O   0  0  0  0  0  0  0  0  0  0  0  0
    1.5000    0.0000    0.0000 C   0  0  0  0  0  0  0  0  0  0  0  0
    0.7500   -1.2990    0.0000 C   0  0  0  0  0  0  0  0  0  0  0  0
   -0.7500   -1.2990    0.0000 N   0  0  0  0  0  0  0  0  0  0  0  0
   -1.5000    0.0000    0.0000 C   0  0  0  0  0  0  0  0  0  0  0  0
   -0.7500    1.2990    0.0000 C   0  0  0  0  0  0  0  0  0  0  0  0
   -1.5000    2.5981    0.0000 C   0  0  0  0  0  0  0  0  0  0  0  0
   -0.7500    3.8971    0.0000 C   0  0  0  0  0  0  0  0  0  0  0  0
   -1.5000    5.1962    0.0000 C   0  0  0  0  0  0  0  0  0  0  0  0
   -0.7500    6.4952    0.0000 C   0  0  0  0  0  0  0  0  0  0  0  0
   -1.5000    7.7942    0.0000 C   0  0  0  0  0  0  0  0  0  0  0  0
   -3.0000    7.7942    0.0000 C   0  0  0  0  0  0  0  0  0  0  0  0
   -3.7500    6.4952    0.0000 C   0  0  0  0  0  0  0  0  0  0  0  0
   -3.0000    5.1962    0.0000 C   0  0  0  0  0  0  0  0  0  0  0  0
   -3.7500    3.8971    0.0000 C   0  0  0  0  0  0  0  0  0  0  0  0
    0.7500    1.2990    0.0000 C   0  0  0  0  0  0  0  0  0  0  0  0
  1  2  1  0
  2  3  1  0
  3  4  2  0
  3  5  1  0
  5  6  2  0
  6  7  1  0
  7  8  2  0
  8  9  1  0
  9 10  1  0
 10 11  2  0
 11 12  1  0
 12 13  2  0
 13 14  1  0
 14 15  2  0
 15 16  1  0
 16 17  2  0
 17 18  1  0
  9 19  2  0
 19  5  1  0
 17 12  1  0
M  END
>  <Compound_ID>  (513) 
CHEMBL218969

>  <Molecule Name>  (513) 
GW445015X

>  <Molecular Weight>  (513) 
252.32

>  <AlogP>  (513) 
2.92

>  <Smiles>  (513) 
CNC(=O)c1cncc(/C=C/c2ccccc2C)c1

>  <Standard Type>  (513) 
Inhibition

>  <Standard Relation>  (513) 
'='

>  <Standard Units>  (513) 
%

>  <Standard Value>  (513) 
4.22

>  <Assay ChEMBL ID>  (513) 
CHEMBL1962241

>  <Assay Description>  (513) 
GSK_PKIS: ALK mean inhibition at 1 uM [Nanosyn]

>  <BAO Format ID>  (513) 
BAO_0000357

>  <BAO Label>  (513) 
single protein format

>  <Assay Organism>  (513) 
None

>  <Target ChEMBL ID>  (513) 
CHEMBL4247

>  <Target Name>  (513) 
ALK tyrosine kinase receptor

>  <Target Organism>  (513) 
Homo sapiens

>  <Target Type>  (513) 
SINGLE PROTEIN

>  <Document ChEMBL ID>  (513) 
CHEMBL1961873

>  <Source Description>  (513) 
GSK Published Kinase Inhibitor Set

>  <Document Journal>  (513) 
nan

>  <Document Year>  (513) 
nan

>  <Active>  (513) 
0.0

>  <bits>  (513) 
<rdkit.DataStructs.cDataStructs.ExplicitBitVect object at 0x000002422F1E03C0>

>  <Group>  (513) 
G2

$$$$

     RDKit          2D

 30 34  0  0  0  0  0  0  0  0999 V2000
    3.0000    0.0000    0.0000 C   0  0  0  0  0  0  0  0  0  0  0  0
    1.5000    0.0000    0.0000 C   0  0  0  0  0  0  0  0  0  0  0  0
    0.7500   -1.2990    0.0000 C   0  0  0  0  0  0  0  0  0  0  0  0
   -0.7500   -1.2990    0.0000 C   0  0  0  0  0  0  0  0  0  0  0  0
   -1.5000    0.0000    0.0000 C   0  0  0  0  0  0  0  0  0  0  0  0
   -2.9672    0.3119    0.0000 C   0  0  0  0  0  0  0  0  0  0  0  0
   -4.0819   -0.6918    0.0000 C   0  0  0  0  0  0  0  0  0  0  0  0
   -5.5085   -0.2283    0.0000 C   0  0  0  0  0  0  0  0  0  0  0  0
   -6.6232   -1.2320    0.0000 C   0  0  0  0  0  0  0  0  0  0  0  0
   -6.3114   -2.6992    0.0000 N   0  0  0  0  0  0  0  0  0  0  0  0
   -4.8848   -3.1627    0.0000 C   0  0  0  0  0  0  0  0  0  0  0  0
   -4.5729   -4.6300    0.0000 N   0  0  0  0  0  0  0  0  0  0  0  0
   -5.6876   -5.6337    0.0000 C   0  0  0  0  0  0  0  0  0  0  0  0
   -7.1142   -5.1701    0.0000 C   0  0  0  0  0  0  0  0  0  0  0  0
   -8.2289   -6.1738    0.0000 C   0  0  0  0  0  0  0  0  0  0  0  0
   -7.9171   -7.6411    0.0000 C   0  0  0  0  0  0  0  0  0  0  0  0
   -6.4905   -8.1046    0.0000 C   0  0  0  0  0  0  0  0  0  0  0  0
   -5.3758   -7.1009    0.0000 C   0  0  0  0  0  0  0  0  0  0  0  0
   -3.7701   -2.1590    0.0000 N   0  0  0  0  0  0  0  0  0  0  0  0
   -3.1240    1.8037    0.0000 C   0  0  0  0  0  0  0  0  0  0  0  0
   -4.4231    2.5537    0.0000 C   0  0  0  0  0  0  0  0  0  0  0  0
   -4.4231    4.0537    0.0000 C   0  0  0  0  0  0  0  0  0  0  0  0
   -5.7221    4.8037    0.0000 C   0  0  0  0  0  0  0  0  0  0  0  0
   -7.0211    4.0537    0.0000 C   0  0  0  0  0  0  0  0  0  0  0  0
   -8.3202    4.8037    0.0000 F   0  0  0  0  0  0  0  0  0  0  0  0
   -7.0211    2.5537    0.0000 C   0  0  0  0  0  0  0  0  0  0  0  0
   -5.7221    1.8037    0.0000 C   0  0  0  0  0  0  0  0  0  0  0  0
   -1.7537    2.4138    0.0000 N   0  0  0  0  0  0  0  0  0  0  0  0
   -0.7500    1.2990    0.0000 N   0  0  0  0  0  0  0  0  0  0  0  0
    0.7500    1.2990    0.0000 N   0  0  0  0  0  0  0  0  0  0  0  0
  1  2  1  0
  2  3  1  0
  3  4  2  0
  4  5  1  0
  5  6  2  0
  6  7  1  0
  7  8  2  0
  8  9  1  0
  9 10  2  0
 10 11  1  0
 11 12  1  0
 12 13  1  0
 13 14  2  0
 14 15  1  0
 15 16  2  0
 16 17  1  0
 17 18  2  0
 11 19  2  0
  6 20  1  0
 20 21  1  0
 21 22  2  0
 22 23  1  0
 23 24  2  0
 24 25  1  0
 24 26  1  0
 26 27  2  0
 20 28  2  0
 28 29  1  0
 29 30  1  0
 30  2  2  0
 29  5  1  0
 19  7  1  0
 27 21  1  0
 18 13  1  0
M  END
>  <Compound_ID>  (514) 
CHEMBL189459

>  <Molecule Name>  (514) 
GW833373X

>  <Molecular Weight>  (514) 
396.43

>  <AlogP>  (514) 
5.04

>  <Smiles>  (514) 
Cc1ccc2c(-c3ccnc(Nc4ccccc4)n3)c(-c3ccc(F)cc3)nn2n1

>  <Standard Type>  (514) 
Inhibition

>  <Standard Relation>  (514) 
'='

>  <Standard Units>  (514) 
%

>  <Standard Value>  (514) 
2.29

>  <Assay ChEMBL ID>  (514) 
CHEMBL1962240

>  <Assay Description>  (514) 
GSK_PKIS: ALK mean inhibition at 0.1 uM [Nanosyn]

>  <BAO Format ID>  (514) 
BAO_0000357

>  <BAO Label>  (514) 
single protein format

>  <Assay Organism>  (514) 
None

>  <Target ChEMBL ID>  (514) 
CHEMBL4247

>  <Target Name>  (514) 
ALK tyrosine kinase receptor

>  <Target Organism>  (514) 
Homo sapiens

>  <Target Type>  (514) 
SINGLE PROTEIN

>  <Document ChEMBL ID>  (514) 
CHEMBL1961873

>  <Source Description>  (514) 
GSK Published Kinase Inhibitor Set

>  <Document Journal>  (514) 
nan

>  <Document Year>  (514) 
nan

>  <Active>  (514) 
0.0

>  <bits>  (514) 
<rdkit.DataStructs.cDataStructs.ExplicitBitVect object at 0x000002422F1E0270>

>  <Group>  (514) 
G2

$$$$

     RDKit          2D

 33 36  0  0  0  0  0  0  0  0999 V2000
   -3.7500   -6.4952    0.0000 C   0  0  0  0  0  0  0  0  0  0  0  0
   -3.0000   -5.1962    0.0000 O   0  0  0  0  0  0  0  0  0  0  0  0
   -1.5000   -5.1962    0.0000 C   0  0  0  0  0  0  0  0  0  0  0  0
   -0.7500   -3.8971    0.0000 C   0  0  0  0  0  0  0  0  0  0  0  0
    0.7500   -3.8971    0.0000 C   0  0  0  0  0  0  0  0  0  0  0  0
    1.5000   -2.5981    0.0000 N   0  0  0  0  0  0  0  0  0  0  0  0
    0.7500   -1.2990    0.0000 C   0  0  0  0  0  0  0  0  0  0  0  0
    1.5000    0.0000    0.0000 N   0  0  0  0  0  0  0  0  0  0  0  0
    0.7500    1.2990    0.0000 C   0  0  0  0  0  0  0  0  0  0  0  0
   -0.7500    1.2990    0.0000 C   0  0  0  0  0  0  0  0  0  0  0  0
   -1.7537    2.4138    0.0000 C   0  0  0  0  0  0  0  0  0  0  0  0
   -1.4418    3.8810    0.0000 C   0  0  0  0  0  0  0  0  0  0  0  0
   -3.1240    1.8037    0.0000 N   0  0  0  0  0  0  0  0  0  0  0  0
   -2.9672    0.3119    0.0000 C   0  0  0  0  0  0  0  0  0  0  0  0
   -4.0819   -0.6918    0.0000 C   0  0  0  0  0  0  0  0  0  0  0  0
   -3.7701   -2.1590    0.0000 C   0  0  0  0  0  0  0  0  0  0  0  0
   -4.8848   -3.1627    0.0000 C   0  0  0  0  0  0  0  0  0  0  0  0
   -6.3114   -2.6992    0.0000 C   0  0  0  0  0  0  0  0  0  0  0  0
   -6.6232   -1.2320    0.0000 C   0  0  0  0  0  0  0  0  0  0  0  0
   -8.0498   -0.7685    0.0000 C   0  0  0  0  0  0  0  0  0  0  0  0
   -9.4764   -0.3049    0.0000 F   0  0  0  0  0  0  0  0  0  0  0  0
   -8.5134   -2.1951    0.0000 F   0  0  0  0  0  0  0  0  0  0  0  0
   -7.5863    0.6581    0.0000 F   0  0  0  0  0  0  0  0  0  0  0  0
   -5.5085   -0.2283    0.0000 C   0  0  0  0  0  0  0  0  0  0  0  0
   -1.5000    0.0000    0.0000 N   0  0  0  0  0  0  0  0  0  0  0  0
   -0.7500   -1.2990    0.0000 N   0  0  0  0  0  0  0  0  0  0  0  0
    1.5000   -5.1962    0.0000 C   0  0  0  0  0  0  0  0  0  0  0  0
    0.7500   -6.4952    0.0000 C   0  0  0  0  0  0  0  0  0  0  0  0
    1.5000   -7.7942    0.0000 O   0  0  0  0  0  0  0  0  0  0  0  0
    0.7500   -9.0933    0.0000 C   0  0  0  0  0  0  0  0  0  0  0  0
   -0.7500   -6.4952    0.0000 C   0  0  0  0  0  0  0  0  0  0  0  0
   -1.5000   -7.7942    0.0000 O   0  0  0  0  0  0  0  0  0  0  0  0
   -0.7500   -9.0933    0.0000 C   0  0  0  0  0  0  0  0  0  0  0  0
  1  2  1  0
  2  3  1  0
  3  4  2  0
  4  5  1  0
  5  6  1  0
  6  7  1  0
  7  8  1  0
  8  9  2  0
  9 10  1  0
 10 11  2  0
 11 12  1  0
 11 13  1  0
 13 14  2  0
 14 15  1  0
 15 16  2  0
 16 17  1  0
 17 18  2  0
 18 19  1  0
 19 20  1  0
 20 21  1  0
 20 22  1  0
 20 23  1  0
 19 24  2  0
 14 25  1  0
 25 26  1  0
  5 27  2  0
 27 28  1  0
 28 29  1  0
 29 30  1  0
 28 31  2  0
 31 32  1  0
 32 33  1  0
 31  3  1  0
 26  7  2  0
 25 10  1  0
 24 15  1  0
M  END
>  <Compound_ID>  (515) 
CHEMBL520037

>  <Molecule Name>  (515) 
GW837331X

>  <Molecular Weight>  (515) 
459.43

>  <AlogP>  (515) 
4.89

>  <Smiles>  (515) 
COc1cc(Nc2ncc3c(C)nc(-c4cccc(C(F)(F)F)c4)n3n2)cc(OC)c1OC

>  <Standard Type>  (515) 
Inhibition

>  <Standard Relation>  (515) 
'='

>  <Standard Units>  (515) 
%

>  <Standard Value>  (515) 
6.97

>  <Assay ChEMBL ID>  (515) 
CHEMBL1962241

>  <Assay Description>  (515) 
GSK_PKIS: ALK mean inhibition at 1 uM [Nanosyn]

>  <BAO Format ID>  (515) 
BAO_0000357

>  <BAO Label>  (515) 
single protein format

>  <Assay Organism>  (515) 
None

>  <Target ChEMBL ID>  (515) 
CHEMBL4247

>  <Target Name>  (515) 
ALK tyrosine kinase receptor

>  <Target Organism>  (515) 
Homo sapiens

>  <Target Type>  (515) 
SINGLE PROTEIN

>  <Document ChEMBL ID>  (515) 
CHEMBL1961873

>  <Source Description>  (515) 
GSK Published Kinase Inhibitor Set

>  <Document Journal>  (515) 
nan

>  <Document Year>  (515) 
nan

>  <Active>  (515) 
0.0

>  <bits>  (515) 
<rdkit.DataStructs.cDataStructs.ExplicitBitVect object at 0x000002422F1E0190>

>  <Group>  (515) 
G2

$$$$

     RDKit          2D

 28 32  0  0  0  0  0  0  0  0999 V2000
    4.5000    0.0000    0.0000 N   0  0  0  0  0  0  0  0  0  0  0  0
    3.0000    0.0000    0.0000 C   0  0  0  0  0  0  0  0  0  0  0  0
    1.5000    0.0000    0.0000 C   0  0  0  0  0  0  0  0  0  0  0  0
    0.7500   -1.2990    0.0000 C   0  0  0  0  0  0  0  0  0  0  0  0
   -0.7500   -1.2990    0.0000 C   0  0  0  0  0  0  0  0  0  0  0  0
   -1.5000    0.0000    0.0000 C   0  0  0  0  0  0  0  0  0  0  0  0
   -2.9672    0.3119    0.0000 C   0  0  0  0  0  0  0  0  0  0  0  0
   -4.0819   -0.6918    0.0000 C   0  0  0  0  0  0  0  0  0  0  0  0
   -5.5085   -0.2283    0.0000 C   0  0  0  0  0  0  0  0  0  0  0  0
   -6.6232   -1.2320    0.0000 C   0  0  0  0  0  0  0  0  0  0  0  0
   -6.3114   -2.6992    0.0000 N   0  0  0  0  0  0  0  0  0  0  0  0
   -4.8848   -3.1627    0.0000 C   0  0  0  0  0  0  0  0  0  0  0  0
   -4.5729   -4.6300    0.0000 N   0  0  0  0  0  0  0  0  0  0  0  0
   -5.6876   -5.6337    0.0000 C   0  0  0  0  0  0  0  0  0  0  0  0
   -6.1512   -7.0602    0.0000 C   0  0  0  0  0  0  0  0  0  0  0  0
   -7.1549   -5.9455    0.0000 C   0  0  0  0  0  0  0  0  0  0  0  0
   -3.7701   -2.1590    0.0000 N   0  0  0  0  0  0  0  0  0  0  0  0
   -3.1240    1.8037    0.0000 C   0  0  0  0  0  0  0  0  0  0  0  0
   -4.4231    2.5537    0.0000 C   0  0  0  0  0  0  0  0  0  0  0  0
   -4.4231    4.0537    0.0000 C   0  0  0  0  0  0  0  0  0  0  0  0
   -5.7221    4.8037    0.0000 C   0  0  0  0  0  0  0  0  0  0  0  0
   -7.0211    4.0537    0.0000 C   0  0  0  0  0  0  0  0  0  0  0  0
   -8.3202    4.8037    0.0000 F   0  0  0  0  0  0  0  0  0  0  0  0
   -7.0211    2.5537    0.0000 C   0  0  0  0  0  0  0  0  0  0  0  0
   -5.7221    1.8037    0.0000 C   0  0  0  0  0  0  0  0  0  0  0  0
   -1.7537    2.4138    0.0000 N   0  0  0  0  0  0  0  0  0  0  0  0
   -0.7500    1.2990    0.0000 N   0  0  0  0  0  0  0  0  0  0  0  0
    0.7500    1.2990    0.0000 C   0  0  0  0  0  0  0  0  0  0  0  0
  1  2  3  0
  2  3  1  0
  3  4  1  0
  4  5  2  0
  5  6  1  0
  6  7  2  0
  7  8  1  0
  8  9  2  0
  9 10  1  0
 10 11  2  0
 11 12  1  0
 12 13  1  0
 13 14  1  0
 14 15  1  0
 15 16  1  0
 12 17  2  0
  7 18  1  0
 18 19  1  0
 19 20  2  0
 20 21  1  0
 21 22  2  0
 22 23  1  0
 22 24  1  0
 24 25  2  0
 18 26  2  0
 26 27  1  0
 27 28  1  0
 28  3  2  0
 27  6  1  0
 17  8  1  0
 25 19  1  0
 16 14  1  0
M  END
>  <Compound_ID>  (516) 
CHEMBL1885746

>  <Molecule Name>  (516) 
GW561436X

>  <Molecular Weight>  (516) 
370.39

>  <AlogP>  (516) 
4.04

>  <Smiles>  (516) 
N#Cc1ccc2c(-c3ccnc(NC4CC4)n3)c(-c3ccc(F)cc3)nn2c1

>  <Standard Type>  (516) 
Inhibition

>  <Standard Relation>  (516) 
'='

>  <Standard Units>  (516) 
%

>  <Standard Value>  (516) 
0.92

>  <Assay ChEMBL ID>  (516) 
CHEMBL1962240

>  <Assay Description>  (516) 
GSK_PKIS: ALK mean inhibition at 0.1 uM [Nanosyn]

>  <BAO Format ID>  (516) 
BAO_0000357

>  <BAO Label>  (516) 
single protein format

>  <Assay Organism>  (516) 
None

>  <Target ChEMBL ID>  (516) 
CHEMBL4247

>  <Target Name>  (516) 
ALK tyrosine kinase receptor

>  <Target Organism>  (516) 
Homo sapiens

>  <Target Type>  (516) 
SINGLE PROTEIN

>  <Document ChEMBL ID>  (516) 
CHEMBL1961873

>  <Source Description>  (516) 
GSK Published Kinase Inhibitor Set

>  <Document Journal>  (516) 
nan

>  <Document Year>  (516) 
nan

>  <Active>  (516) 
0.0

>  <bits>  (516) 
<rdkit.DataStructs.cDataStructs.ExplicitBitVect object at 0x000002422F1E2B90>

>  <Group>  (516) 
G2

$$$$

     RDKit          2D

 30 34  0  0  0  0  0  0  0  0999 V2000
   12.7500   -3.8971    0.0000 C   0  0  0  0  0  0  0  0  0  0  0  0
   12.0000   -5.1962    0.0000 C   0  0  0  0  0  0  0  0  0  0  0  0
   10.5000   -5.1962    0.0000 C   0  0  0  0  0  0  0  0  0  0  0  0
    9.7500   -3.8971    0.0000 C   0  0  0  0  0  0  0  0  0  0  0  0
    8.2500   -3.8971    0.0000 C   0  0  0  0  0  0  0  0  0  0  0  0
    7.5000   -2.5981    0.0000 O   0  0  0  0  0  0  0  0  0  0  0  0
    6.0000   -2.5981    0.0000 C   0  0  0  0  0  0  0  0  0  0  0  0
    5.2500   -1.2990    0.0000 C   0  0  0  0  0  0  0  0  0  0  0  0
    3.7500   -1.2990    0.0000 C   0  0  0  0  0  0  0  0  0  0  0  0
    3.0000   -2.5981    0.0000 C   0  0  0  0  0  0  0  0  0  0  0  0
    1.5000   -2.5981    0.0000 N   0  0  0  0  0  0  0  0  0  0  0  0
    0.7500   -1.2990    0.0000 C   0  0  0  0  0  0  0  0  0  0  0  0
    1.5000    0.0000    0.0000 N   0  0  0  0  0  0  0  0  0  0  0  0
    0.7500    1.2990    0.0000 C   0  0  0  0  0  0  0  0  0  0  0  0
   -0.7500    1.2990    0.0000 N   0  0  0  0  0  0  0  0  0  0  0  0
   -1.5000    0.0000    0.0000 C   0  0  0  0  0  0  0  0  0  0  0  0
   -3.0000    0.0000    0.0000 C   0  0  0  0  0  0  0  0  0  0  0  0
   -3.7500   -1.2990    0.0000 C   0  0  0  0  0  0  0  0  0  0  0  0
   -3.0000   -2.5981    0.0000 C   0  0  0  0  0  0  0  0  0  0  0  0
   -3.7500   -3.8971    0.0000 C   0  0  0  0  0  0  0  0  0  0  0  0
   -3.1399   -5.2674    0.0000 C   0  0  0  0  0  0  0  0  0  0  0  0
   -4.2546   -6.2711    0.0000 C   0  0  0  0  0  0  0  0  0  0  0  0
   -5.5537   -5.5211    0.0000 C   0  0  0  0  0  0  0  0  0  0  0  0
   -5.2418   -4.0539    0.0000 O   0  0  0  0  0  0  0  0  0  0  0  0
   -1.5000   -2.5981    0.0000 C   0  0  0  0  0  0  0  0  0  0  0  0
   -0.7500   -1.2990    0.0000 C   0  0  0  0  0  0  0  0  0  0  0  0
    3.7500   -3.8971    0.0000 C   0  0  0  0  0  0  0  0  0  0  0  0
    5.2500   -3.8971    0.0000 C   0  0  0  0  0  0  0  0  0  0  0  0
   10.5000   -2.5981    0.0000 C   0  0  0  0  0  0  0  0  0  0  0  0
   12.0000   -2.5981    0.0000 C   0  0  0  0  0  0  0  0  0  0  0  0
  1  2  2  0
  2  3  1  0
  3  4  2  0
  4  5  1  0
  5  6  1  0
  6  7  1  0
  7  8  2  0
  8  9  1  0
  9 10  2  0
 10 11  1  0
 11 12  1  0
 12 13  2  0
 13 14  1  0
 14 15  2  0
 15 16  1  0
 16 17  2  0
 17 18  1  0
 18 19  2  0
 19 20  1  0
 20 21  2  0
 21 22  1  0
 22 23  2  0
 23 24  1  0
 19 25  1  0
 25 26  2  0
 10 27  1  0
 27 28  2  0
  4 29  1  0
 29 30  2  0
 30  1  1  0
 28  7  1  0
 26 12  1  0
 26 16  1  0
 24 20  1  0
M  END
>  <Compound_ID>  (517) 
CHEMBL215993

>  <Molecule Name>  (517) 
GW284372X

>  <Molecular Weight>  (517) 
393.45

>  <AlogP>  (517) 
6.21

>  <Smiles>  (517) 
c1ccc(COc2ccc(Nc3ncnc4ccc(-c5ccco5)cc34)cc2)cc1

>  <Standard Type>  (517) 
Inhibition

>  <Standard Relation>  (517) 
'='

>  <Standard Units>  (517) 
%

>  <Standard Value>  (517) 
1.38

>  <Assay ChEMBL ID>  (517) 
CHEMBL1962240

>  <Assay Description>  (517) 
GSK_PKIS: ALK mean inhibition at 0.1 uM [Nanosyn]

>  <BAO Format ID>  (517) 
BAO_0000357

>  <BAO Label>  (517) 
single protein format

>  <Assay Organism>  (517) 
None

>  <Target ChEMBL ID>  (517) 
CHEMBL4247

>  <Target Name>  (517) 
ALK tyrosine kinase receptor

>  <Target Organism>  (517) 
Homo sapiens

>  <Target Type>  (517) 
SINGLE PROTEIN

>  <Document ChEMBL ID>  (517) 
CHEMBL1961873

>  <Source Description>  (517) 
GSK Published Kinase Inhibitor Set

>  <Document Journal>  (517) 
nan

>  <Document Year>  (517) 
nan

>  <Active>  (517) 
0.0

>  <bits>  (517) 
<rdkit.DataStructs.cDataStructs.ExplicitBitVect object at 0x000002422F1E12A0>

>  <Group>  (517) 
G2

$$$$

     RDKit          2D

 26 29  0  0  0  0  0  0  0  0999 V2000
    3.0000    0.0000    0.0000 C   0  0  0  0  0  0  0  0  0  0  0  0
    1.5000    0.0000    0.0000 C   0  0  0  0  0  0  0  0  0  0  0  0
    0.7500   -1.2990    0.0000 C   0  0  0  0  0  0  0  0  0  0  0  0
   -0.7500   -1.2990    0.0000 C   0  0  0  0  0  0  0  0  0  0  0  0
   -1.5000   -2.5981    0.0000 C   0  0  0  0  0  0  0  0  0  0  0  0
   -0.8899   -3.9684    0.0000 C   0  0  0  0  0  0  0  0  0  0  0  0
   -2.0046   -4.9721    0.0000 C   0  0  0  0  0  0  0  0  0  0  0  0
   -3.3037   -4.2221    0.0000 C   0  0  0  0  0  0  0  0  0  0  0  0
   -2.9918   -2.7549    0.0000 O   0  0  0  0  0  0  0  0  0  0  0  0
   -1.5000    0.0000    0.0000 C   0  0  0  0  0  0  0  0  0  0  0  0
   -0.7500    1.2990    0.0000 C   0  0  0  0  0  0  0  0  0  0  0  0
   -1.5000    2.5981    0.0000 C   0  0  0  0  0  0  0  0  0  0  0  0
    0.7500    1.2990    0.0000 C   0  0  0  0  0  0  0  0  0  0  0  0
    1.5000    2.5981    0.0000 C   0  0  0  0  0  0  0  0  0  0  0  0
    3.0000    2.5981    0.0000 C   0  0  0  0  0  0  0  0  0  0  0  0
    3.7500    3.8971    0.0000 C   0  0  0  0  0  0  0  0  0  0  0  0
    5.2500    3.8971    0.0000 C   0  0  0  0  0  0  0  0  0  0  0  0
    6.0000    5.1962    0.0000 N   0  0  0  0  0  0  0  0  0  0  0  0
    5.2500    6.4952    0.0000 C   0  0  0  0  0  0  0  0  0  0  0  0
    3.7500    6.4952    0.0000 C   0  0  0  0  0  0  0  0  0  0  0  0
    3.0000    7.7942    0.0000 C   0  0  0  0  0  0  0  0  0  0  0  0
    1.5082    7.9510    0.0000 N   0  0  0  0  0  0  0  0  0  0  0  0
    1.1963    9.4182    0.0000 N   0  0  0  0  0  0  0  0  0  0  0  0
    2.4954   10.1682    0.0000 N   0  0  0  0  0  0  0  0  0  0  0  0
    3.6101    9.1645    0.0000 N   0  0  0  0  0  0  0  0  0  0  0  0
    3.0000    5.1962    0.0000 C   0  0  0  0  0  0  0  0  0  0  0  0
  1  2  1  0
  2  3  2  0
  3  4  1  0
  4  5  1  0
  5  6  2  0
  6  7  1  0
  7  8  2  0
  8  9  1  0
  4 10  2  0
 10 11  1  0
 11 12  1  0
 11 13  2  0
 13 14  1  0
 14 15  2  0
 15 16  1  0
 16 17  2  0
 17 18  1  0
 18 19  2  0
 19 20  1  0
 20 21  1  0
 21 22  1  0
 22 23  2  0
 23 24  1  0
 24 25  1  0
 20 26  2  0
 13  2  1  0
 26 16  1  0
  9  5  1  0
 25 21  2  0
M  END
>  <Compound_ID>  (518) 
CHEMBL1909353

>  <Molecule Name>  (518) 
GW458344A

>  <Molecular Weight>  (518) 
379.85

>  <AlogP>  (518) 
4.31

>  <Smiles>  (518) 
Cc1cc(-c2ccco2)cc(C)c1/C=C/c1cncc(-c2nn[nH]n2)c1

>  <Standard Type>  (518) 
Inhibition

>  <Standard Relation>  (518) 
'='

>  <Standard Units>  (518) 
%

>  <Standard Value>  (518) 
2.41

>  <Assay ChEMBL ID>  (518) 
CHEMBL1962240

>  <Assay Description>  (518) 
GSK_PKIS: ALK mean inhibition at 0.1 uM [Nanosyn]

>  <BAO Format ID>  (518) 
BAO_0000357

>  <BAO Label>  (518) 
single protein format

>  <Assay Organism>  (518) 
None

>  <Target ChEMBL ID>  (518) 
CHEMBL4247

>  <Target Name>  (518) 
ALK tyrosine kinase receptor

>  <Target Organism>  (518) 
Homo sapiens

>  <Target Type>  (518) 
SINGLE PROTEIN

>  <Document ChEMBL ID>  (518) 
CHEMBL1961873

>  <Source Description>  (518) 
GSK Published Kinase Inhibitor Set

>  <Document Journal>  (518) 
nan

>  <Document Year>  (518) 
nan

>  <Active>  (518) 
0.0

>  <bits>  (518) 
<rdkit.DataStructs.cDataStructs.ExplicitBitVect object at 0x000002422F1E2DC0>

>  <Group>  (518) 
G2

$$$$

     RDKit          2D

 21 23  0  0  0  0  0  0  0  0999 V2000
   -0.0000   -5.1073    0.0000 O   0  0  0  0  0  0  0  0  0  0  0  0
   -0.0000   -3.6073    0.0000 C   0  0  0  0  0  0  0  0  0  0  0  0
    1.2135   -2.7256    0.0000 N   0  0  0  0  0  0  0  0  0  0  0  0
    0.7500   -1.2990    0.0000 C   0  0  0  0  0  0  0  0  0  0  0  0
    1.5000    0.0000    0.0000 C   0  0  0  0  0  0  0  0  0  0  0  0
    0.7500    1.2990    0.0000 C   0  0  0  0  0  0  0  0  0  0  0  0
   -0.7500    1.2990    0.0000 C   0  0  0  0  0  0  0  0  0  0  0  0
   -1.5000    2.5981    0.0000 I   0  0  0  0  0  0  0  0  0  0  0  0
   -1.5000    0.0000    0.0000 C   0  0  0  0  0  0  0  0  0  0  0  0
   -0.7500   -1.2990    0.0000 C   0  0  0  0  0  0  0  0  0  0  0  0
   -1.2135   -2.7256    0.0000 C   0  0  0  0  0  0  0  0  0  0  0  0
   -2.6401   -3.1891    0.0000 C   0  0  0  0  0  0  0  0  0  0  0  0
   -2.9520   -4.6564    0.0000 C   0  0  0  0  0  0  0  0  0  0  0  0
   -4.3786   -5.1199    0.0000 C   0  0  0  0  0  0  0  0  0  0  0  0
   -4.6904   -6.5871    0.0000 C   0  0  0  0  0  0  0  0  0  0  0  0
   -6.1170   -7.0506    0.0000 Br  0  0  0  0  0  0  0  0  0  0  0  0
   -3.5757   -7.5908    0.0000 C   0  0  0  0  0  0  0  0  0  0  0  0
   -3.8876   -9.0580    0.0000 O   0  0  0  0  0  0  0  0  0  0  0  0
   -2.1491   -7.1273    0.0000 C   0  0  0  0  0  0  0  0  0  0  0  0
   -1.0344   -8.1310    0.0000 Br  0  0  0  0  0  0  0  0  0  0  0  0
   -1.8373   -5.6601    0.0000 C   0  0  0  0  0  0  0  0  0  0  0  0
  1  2  2  0
  2  3  1  0
  3  4  1  0
  4  5  2  0
  5  6  1  0
  6  7  2  0
  7  8  1  0
  7  9  1  0
  9 10  2  0
 10 11  1  0
 11 12  2  3
 12 13  1  0
 13 14  2  0
 14 15  1  0
 15 16  1  0
 15 17  2  0
 17 18  1  0
 17 19  1  0
 19 20  1  0
 19 21  2  0
 11  2  1  0
 21 13  1  0
 10  4  1  0
M  END
>  <Compound_ID>  (519) 
CHEMBL1880739

>  <Molecule Name>  (519) 
GW305074X

>  <Molecular Weight>  (519) 
520.95

>  <AlogP>  (519) 
5.01

>  <Smiles>  (519) 
O=C1Nc2ccc(I)cc2C1=Cc1cc(Br)c(O)c(Br)c1

>  <Standard Type>  (519) 
Inhibition

>  <Standard Relation>  (519) 
'='

>  <Standard Units>  (519) 
%

>  <Standard Value>  (519) 
3.04

>  <Assay ChEMBL ID>  (519) 
CHEMBL1962240

>  <Assay Description>  (519) 
GSK_PKIS: ALK mean inhibition at 0.1 uM [Nanosyn]

>  <BAO Format ID>  (519) 
BAO_0000357

>  <BAO Label>  (519) 
single protein format

>  <Assay Organism>  (519) 
None

>  <Target ChEMBL ID>  (519) 
CHEMBL4247

>  <Target Name>  (519) 
ALK tyrosine kinase receptor

>  <Target Organism>  (519) 
Homo sapiens

>  <Target Type>  (519) 
SINGLE PROTEIN

>  <Document ChEMBL ID>  (519) 
CHEMBL1961873

>  <Source Description>  (519) 
GSK Published Kinase Inhibitor Set

>  <Document Journal>  (519) 
nan

>  <Document Year>  (519) 
nan

>  <Active>  (519) 
0.0

>  <bits>  (519) 
<rdkit.DataStructs.cDataStructs.ExplicitBitVect object at 0x000002422F1E1540>

>  <Group>  (519) 
G2

$$$$

     RDKit          2D

 28 31  0  0  0  0  0  0  0  0999 V2000
   -9.1645    1.7722    0.0000 C   0  0  0  0  0  0  0  0  0  0  0  0
   -8.0498    0.7685    0.0000 O   0  0  0  0  0  0  0  0  0  0  0  0
   -6.6232    1.2320    0.0000 C   0  0  0  0  0  0  0  0  0  0  0  0
   -6.3114    2.6992    0.0000 C   0  0  0  0  0  0  0  0  0  0  0  0
   -4.8848    3.1627    0.0000 C   0  0  0  0  0  0  0  0  0  0  0  0
   -3.7701    2.1590    0.0000 C   0  0  0  0  0  0  0  0  0  0  0  0
   -4.0819    0.6918    0.0000 C   0  0  0  0  0  0  0  0  0  0  0  0
   -2.9672   -0.3119    0.0000 N   0  0  0  0  0  0  0  0  0  0  0  0
   -3.1240   -1.8037    0.0000 N   0  0  0  0  0  0  0  0  0  0  0  0
   -1.7537   -2.4138    0.0000 C   0  0  0  0  0  0  0  0  0  0  0  0
   -1.4418   -3.8810    0.0000 C   0  0  0  0  0  0  0  0  0  0  0  0
   -0.7500   -1.2990    0.0000 C   0  0  0  0  0  0  0  0  0  0  0  0
    0.7500   -1.2990    0.0000 C   0  0  0  0  0  0  0  0  0  0  0  0
    1.5000   -2.5981    0.0000 N   0  0  0  0  0  0  0  0  0  0  0  0
    3.0000   -2.5981    0.0000 N   0  0  0  0  0  0  0  0  0  0  0  0
    3.7500   -3.8971    0.0000 C   0  0  0  0  0  0  0  0  0  0  0  0
    3.0000   -5.1962    0.0000 C   0  0  0  0  0  0  0  0  0  0  0  0
    5.2500   -3.8971    0.0000 C   0  0  0  0  0  0  0  0  0  0  0  0
    6.0000   -5.1962    0.0000 C   0  0  0  0  0  0  0  0  0  0  0  0
    7.5000   -5.1962    0.0000 C   0  0  0  0  0  0  0  0  0  0  0  0
    8.2500   -3.8971    0.0000 N   0  0  0  0  0  0  0  0  0  0  0  0
    7.5000   -2.5981    0.0000 C   0  0  0  0  0  0  0  0  0  0  0  0
    6.0000   -2.5981    0.0000 C   0  0  0  0  0  0  0  0  0  0  0  0
    1.5000    0.0000    0.0000 N   0  0  0  0  0  0  0  0  0  0  0  0
    0.7500    1.2990    0.0000 C   0  0  0  0  0  0  0  0  0  0  0  0
   -0.7500    1.2990    0.0000 N   0  0  0  0  0  0  0  0  0  0  0  0
   -1.5000    0.0000    0.0000 C   0  0  0  0  0  0  0  0  0  0  0  0
   -5.5085    0.2283    0.0000 C   0  0  0  0  0  0  0  0  0  0  0  0
  1  2  1  0
  2  3  1  0
  3  4  2  0
  4  5  1  0
  5  6  2  0
  6  7  1  0
  7  8  1  0
  8  9  1  0
  9 10  2  0
 10 11  1  0
 10 12  1  0
 12 13  2  0
 13 14  1  0
 14 15  1  0
 15 16  2  0
 16 17  1  0
 16 18  1  0
 18 19  2  0
 19 20  1  0
 20 21  2  0
 21 22  1  0
 22 23  2  0
 13 24  1  0
 24 25  2  0
 25 26  1  0
 26 27  2  0
  7 28  2  0
 28  3  1  0
 27  8  1  0
 27 12  1  0
 23 18  1  0
M  END
>  <Compound_ID>  (520) 
CHEMBL442363

>  <Molecule Name>  (520) 
GW809885X

>  <Molecular Weight>  (520) 
373.42

>  <AlogP>  (520) 
3.36

>  <Smiles>  (520) 
COc1cccc(-n2nc(C)c3c(N/N=C(\C)c4ccncc4)ncnc32)c1

>  <Standard Type>  (520) 
Inhibition

>  <Standard Relation>  (520) 
'='

>  <Standard Units>  (520) 
%

>  <Standard Value>  (520) 
1.35

>  <Assay ChEMBL ID>  (520) 
CHEMBL1962241

>  <Assay Description>  (520) 
GSK_PKIS: ALK mean inhibition at 1 uM [Nanosyn]

>  <BAO Format ID>  (520) 
BAO_0000357

>  <BAO Label>  (520) 
single protein format

>  <Assay Organism>  (520) 
None

>  <Target ChEMBL ID>  (520) 
CHEMBL4247

>  <Target Name>  (520) 
ALK tyrosine kinase receptor

>  <Target Organism>  (520) 
Homo sapiens

>  <Target Type>  (520) 
SINGLE PROTEIN

>  <Document ChEMBL ID>  (520) 
CHEMBL1961873

>  <Source Description>  (520) 
GSK Published Kinase Inhibitor Set

>  <Document Journal>  (520) 
nan

>  <Document Year>  (520) 
nan

>  <Active>  (520) 
0.0

>  <bits>  (520) 
<rdkit.DataStructs.cDataStructs.ExplicitBitVect object at 0x000002422F1E1000>

>  <Group>  (520) 
G2

$$$$

     RDKit          2D

 25 28  0  0  0  0  0  0  0  0999 V2000
    3.0000   -2.5981    0.0000 O   0  0  0  0  0  0  0  0  0  0  0  0
    1.5000   -2.5981    0.0000 C   0  0  0  0  0  0  0  0  0  0  0  0
    0.7500   -3.8971    0.0000 N   0  0  0  0  0  0  0  0  0  0  0  0
    1.5000   -5.1962    0.0000 C   0  0  0  0  0  0  0  0  0  0  0  0
    0.7500   -6.4952    0.0000 C   0  0  0  0  0  0  0  0  0  0  0  0
    0.7500   -7.9952    0.0000 C   0  0  0  0  0  0  0  0  0  0  0  0
   -0.5490   -7.2452    0.0000 C   0  0  0  0  0  0  0  0  0  0  0  0
    0.7500   -1.2990    0.0000 C   0  0  0  0  0  0  0  0  0  0  0  0
    1.5000    0.0000    0.0000 C   0  0  0  0  0  0  0  0  0  0  0  0
    0.7500    1.2990    0.0000 C   0  0  0  0  0  0  0  0  0  0  0  0
   -0.7500    1.2990    0.0000 C   0  0  0  0  0  0  0  0  0  0  0  0
   -1.5000    2.5981    0.0000 C   0  0  0  0  0  0  0  0  0  0  0  0
   -0.7500    3.8971    0.0000 C   0  0  0  0  0  0  0  0  0  0  0  0
   -1.5000    5.1962    0.0000 C   0  0  0  0  0  0  0  0  0  0  0  0
   -3.0000    5.1962    0.0000 C   0  0  0  0  0  0  0  0  0  0  0  0
   -3.7500    3.8971    0.0000 C   0  0  0  0  0  0  0  0  0  0  0  0
   -5.2500    3.8971    0.0000 C   0  0  0  0  0  0  0  0  0  0  0  0
   -6.0000    2.5981    0.0000 O   0  0  0  0  0  0  0  0  0  0  0  0
   -6.0000    5.1962    0.0000 N   0  0  0  0  0  0  0  0  0  0  0  0
   -7.5000    5.1962    0.0000 C   0  0  0  0  0  0  0  0  0  0  0  0
   -8.7990    4.4462    0.0000 C   0  0  0  0  0  0  0  0  0  0  0  0
   -8.7990    5.9462    0.0000 C   0  0  0  0  0  0  0  0  0  0  0  0
   -3.0000    2.5981    0.0000 C   0  0  0  0  0  0  0  0  0  0  0  0
   -1.5000    0.0000    0.0000 C   0  0  0  0  0  0  0  0  0  0  0  0
   -0.7500   -1.2990    0.0000 C   0  0  0  0  0  0  0  0  0  0  0  0
  1  2  2  0
  2  3  1  0
  3  4  1  0
  4  5  1  0
  5  6  1  0
  6  7  1  0
  2  8  1  0
  8  9  2  0
  9 10  1  0
 10 11  2  0
 11 12  1  0
 12 13  2  0
 13 14  1  0
 14 15  2  0
 15 16  1  0
 16 17  1  0
 17 18  2  0
 17 19  1  0
 19 20  1  0
 20 21  1  0
 21 22  1  0
 16 23  2  0
 11 24  1  0
 24 25  2  0
  7  5  1  0
 25  8  1  0
 23 12  1  0
 22 20  1  0
M  END
>  <Compound_ID>  (521) 
CHEMBL479038

>  <Molecule Name>  (521) 
GW806776X

>  <Molecular Weight>  (521) 
334.42

>  <AlogP>  (521) 
3.39

>  <Smiles>  (521) 
O=C(NCC1CC1)c1ccc(-c2cccc(C(=O)NC3CC3)c2)cc1

>  <Standard Type>  (521) 
Inhibition

>  <Standard Relation>  (521) 
'='

>  <Standard Units>  (521) 
%

>  <Standard Value>  (521) 
1.84

>  <Assay ChEMBL ID>  (521) 
CHEMBL1962240

>  <Assay Description>  (521) 
GSK_PKIS: ALK mean inhibition at 0.1 uM [Nanosyn]

>  <BAO Format ID>  (521) 
BAO_0000357

>  <BAO Label>  (521) 
single protein format

>  <Assay Organism>  (521) 
None

>  <Target ChEMBL ID>  (521) 
CHEMBL4247

>  <Target Name>  (521) 
ALK tyrosine kinase receptor

>  <Target Organism>  (521) 
Homo sapiens

>  <Target Type>  (521) 
SINGLE PROTEIN

>  <Document ChEMBL ID>  (521) 
CHEMBL1961873

>  <Source Description>  (521) 
GSK Published Kinase Inhibitor Set

>  <Document Journal>  (521) 
nan

>  <Document Year>  (521) 
nan

>  <Active>  (521) 
0.0

>  <bits>  (521) 
<rdkit.DataStructs.cDataStructs.ExplicitBitVect object at 0x000002422F1E0820>

>  <Group>  (521) 
G2

$$$$

     RDKit          2D

 29 32  0  0  0  0  0  0  0  0999 V2000
    2.6491    0.9642    0.0000 C   0  0  0  0  0  0  0  0  0  0  0  0
    1.5000    0.0000    0.0000 C   0  0  0  0  0  0  0  0  0  0  0  0
    2.6491   -0.9642    0.0000 C   0  0  0  0  0  0  0  0  0  0  0  0
    0.7500   -1.2990    0.0000 C   0  0  0  0  0  0  0  0  0  0  0  0
   -0.7500   -1.2990    0.0000 C   0  0  0  0  0  0  0  0  0  0  0  0
   -1.5000   -2.5981    0.0000 N   0  0  0  0  0  0  0  0  0  0  0  0
   -0.8899   -3.9684    0.0000 C   0  0  0  0  0  0  0  0  0  0  0  0
   -2.0046   -4.9721    0.0000 N   0  0  0  0  0  0  0  0  0  0  0  0
   -3.3037   -4.2221    0.0000 C   0  0  0  0  0  0  0  0  0  0  0  0
   -4.6740   -4.8322    0.0000 C   0  0  0  0  0  0  0  0  0  0  0  0
   -5.8875   -3.9505    0.0000 C   0  0  0  0  0  0  0  0  0  0  0  0
   -7.2578   -4.5606    0.0000 C   0  0  0  0  0  0  0  0  0  0  0  0
   -7.4146   -6.0524    0.0000 C   0  0  0  0  0  0  0  0  0  0  0  0
   -8.7849   -6.6625    0.0000 F   0  0  0  0  0  0  0  0  0  0  0  0
   -6.2011   -6.9341    0.0000 C   0  0  0  0  0  0  0  0  0  0  0  0
   -4.8308   -6.3240    0.0000 C   0  0  0  0  0  0  0  0  0  0  0  0
   -2.9918   -2.7549    0.0000 C   0  0  0  0  0  0  0  0  0  0  0  0
   -3.9955   -1.6402    0.0000 C   0  0  0  0  0  0  0  0  0  0  0  0
   -3.5320   -0.2136    0.0000 C   0  0  0  0  0  0  0  0  0  0  0  0
   -4.5356    0.9012    0.0000 C   0  0  0  0  0  0  0  0  0  0  0  0
   -6.0029    0.5893    0.0000 N   0  0  0  0  0  0  0  0  0  0  0  0
   -6.4664   -0.8373    0.0000 C   0  0  0  0  0  0  0  0  0  0  0  0
   -7.9336   -1.1492    0.0000 N   0  0  0  0  0  0  0  0  0  0  0  0
   -5.4627   -1.9520    0.0000 N   0  0  0  0  0  0  0  0  0  0  0  0
   -1.5000    0.0000    0.0000 C   0  0  0  0  0  0  0  0  0  0  0  0
   -0.7500    1.2990    0.0000 C   0  0  0  0  0  0  0  0  0  0  0  0
   -2.1595    1.8121    0.0000 C   0  0  0  0  0  0  0  0  0  0  0  0
   -0.4895    2.7762    0.0000 C   0  0  0  0  0  0  0  0  0  0  0  0
    0.7500    1.2990    0.0000 N   0  0  0  0  0  0  0  0  0  0  0  0
  1  2  1  0
  2  3  1  0
  2  4  1  0
  4  5  1  0
  5  6  1  0
  6  7  1  0
  7  8  2  0
  8  9  1  0
  9 10  1  0
 10 11  2  0
 11 12  1  0
 12 13  2  0
 13 14  1  0
 13 15  1  0
 15 16  2  0
  9 17  2  0
 17 18  1  0
 18 19  2  0
 19 20  1  0
 20 21  2  0
 21 22  1  0
 22 23  1  0
 22 24  2  0
  5 25  1  0
 25 26  1  0
 26 27  1  0
 26 28  1  0
 26 29  1  0
 29  2  1  0
 17  6  1  0
 24 18  1  0
 16 10  1  0
M  END
>  <Compound_ID>  (522) 
CHEMBL95502

>  <Molecule Name>  (522) 
nan

>  <Molecular Weight>  (522) 
394.5

>  <AlogP>  (522) 
4.21

>  <Smiles>  (522) 
CC1(C)CC(n2cnc(-c3ccc(F)cc3)c2-c2ccnc(N)n2)CC(C)(C)N1

>  <Standard Type>  (522) 
Inhibition

>  <Standard Relation>  (522) 
'='

>  <Standard Units>  (522) 
%

>  <Standard Value>  (522) 
1.55

>  <Assay ChEMBL ID>  (522) 
CHEMBL1962241

>  <Assay Description>  (522) 
GSK_PKIS: ALK mean inhibition at 1 uM [Nanosyn]

>  <BAO Format ID>  (522) 
BAO_0000357

>  <BAO Label>  (522) 
single protein format

>  <Assay Organism>  (522) 
None

>  <Target ChEMBL ID>  (522) 
CHEMBL4247

>  <Target Name>  (522) 
ALK tyrosine kinase receptor

>  <Target Organism>  (522) 
Homo sapiens

>  <Target Type>  (522) 
SINGLE PROTEIN

>  <Document ChEMBL ID>  (522) 
CHEMBL1961873

>  <Source Description>  (522) 
GSK Published Kinase Inhibitor Set

>  <Document Journal>  (522) 
nan

>  <Document Year>  (522) 
nan

>  <Active>  (522) 
0.0

>  <bits>  (522) 
<rdkit.DataStructs.cDataStructs.ExplicitBitVect object at 0x000002422F1E11C0>

>  <Group>  (522) 
G2

$$$$

     RDKit          2D

 21 24  0  0  0  0  0  0  0  0999 V2000
   -1.8373   -5.6601    0.0000 O   0  0  0  0  0  0  0  0  0  0  0  0
   -2.9520   -4.6564    0.0000 C   0  0  0  0  0  0  0  0  0  0  0  0
   -2.6401   -3.1891    0.0000 N   0  0  0  0  0  0  0  0  0  0  0  0
   -1.2135   -2.7256    0.0000 C   0  0  0  0  0  0  0  0  0  0  0  0
   -0.0000   -3.6073    0.0000 N   0  0  0  0  0  0  0  0  0  0  0  0
    1.2135   -2.7256    0.0000 N   0  0  0  0  0  0  0  0  0  0  0  0
    0.7500   -1.2990    0.0000 C   0  0  0  0  0  0  0  0  0  0  0  0
    1.5000    0.0000    0.0000 C   0  0  0  0  0  0  0  0  0  0  0  0
    0.7500    1.2990    0.0000 C   0  0  0  0  0  0  0  0  0  0  0  0
    1.5000    2.5981    0.0000 C   0  0  0  0  0  0  0  0  0  0  0  0
    3.0000    2.5981    0.0000 C   0  0  0  0  0  0  0  0  0  0  0  0
    3.7500    3.8971    0.0000 C   0  0  0  0  0  0  0  0  0  0  0  0
    3.0000    5.1962    0.0000 C   0  0  0  0  0  0  0  0  0  0  0  0
    1.5000    5.1962    0.0000 C   0  0  0  0  0  0  0  0  0  0  0  0
    0.7500    3.8971    0.0000 C   0  0  0  0  0  0  0  0  0  0  0  0
   -0.7500    1.2990    0.0000 C   0  0  0  0  0  0  0  0  0  0  0  0
   -1.5000    0.0000    0.0000 C   0  0  0  0  0  0  0  0  0  0  0  0
   -0.7500   -1.2990    0.0000 C   0  0  0  0  0  0  0  0  0  0  0  0
   -4.3786   -5.1199    0.0000 C   0  0  0  0  0  0  0  0  0  0  0  0
   -5.3823   -6.2346    0.0000 C   0  0  0  0  0  0  0  0  0  0  0  0
   -5.8458   -4.8080    0.0000 C   0  0  0  0  0  0  0  0  0  0  0  0
  1  2  2  0
  2  3  1  0
  3  4  1  0
  4  5  2  0
  5  6  1  0
  6  7  1  0
  7  8  2  0
  8  9  1  0
  9 10  1  0
 10 11  2  0
 11 12  1  0
 12 13  2  0
 13 14  1  0
 14 15  2  0
  9 16  2  0
 16 17  1  0
 17 18  2  0
  2 19  1  0
 19 20  1  0
 20 21  1  0
 18  4  1  0
 21 19  1  0
 18  7  1  0
 15 10  1  0
M  END
>  <Compound_ID>  (523) 
CHEMBL405021

>  <Molecule Name>  (523) 
nan

>  <Molecular Weight>  (523) 
277.33

>  <AlogP>  (523) 
3.58

>  <Smiles>  (523) 
O=C(Nc1n[nH]c2cc(-c3ccccc3)ccc12)C1CC1

>  <Standard Type>  (523) 
Inhibition

>  <Standard Relation>  (523) 
'='

>  <Standard Units>  (523) 
%

>  <Standard Value>  (523) 
4.86

>  <Assay ChEMBL ID>  (523) 
CHEMBL1962241

>  <Assay Description>  (523) 
GSK_PKIS: ALK mean inhibition at 1 uM [Nanosyn]

>  <BAO Format ID>  (523) 
BAO_0000357

>  <BAO Label>  (523) 
single protein format

>  <Assay Organism>  (523) 
None

>  <Target ChEMBL ID>  (523) 
CHEMBL4247

>  <Target Name>  (523) 
ALK tyrosine kinase receptor

>  <Target Organism>  (523) 
Homo sapiens

>  <Target Type>  (523) 
SINGLE PROTEIN

>  <Document ChEMBL ID>  (523) 
CHEMBL1961873

>  <Source Description>  (523) 
GSK Published Kinase Inhibitor Set

>  <Document Journal>  (523) 
nan

>  <Document Year>  (523) 
nan

>  <Active>  (523) 
0.0

>  <bits>  (523) 
<rdkit.DataStructs.cDataStructs.ExplicitBitVect object at 0x000002422F1E0510>

>  <Group>  (523) 
G2

$$$$

     RDKit          2D

 38 40  0  0  0  0  0  0  0  0999 V2000
   24.0000  -15.5885    0.0000 C   0  0  0  0  0  0  0  0  0  0  0  0
   23.2500  -14.2894    0.0000 C   0  0  0  0  0  0  0  0  0  0  0  0
   21.7500  -14.2894    0.0000 C   0  0  0  0  0  0  0  0  0  0  0  0
   21.0000  -12.9904    0.0000 C   0  0  0  0  0  0  0  0  0  0  0  0
   19.5000  -12.9904    0.0000 C   0  0  0  0  0  0  0  0  0  0  0  0
   18.7500  -11.6913    0.0000 C   0  0  0  0  0  0  0  0  0  0  0  0
   17.2500  -11.6913    0.0000 C   0  0  0  0  0  0  0  0  0  0  0  0
   16.5000  -10.3923    0.0000 C   0  0  0  0  0  0  0  0  0  0  0  0
   15.0000  -10.3923    0.0000 C   0  0  0  0  0  0  0  0  0  0  0  0
   14.2500   -9.0933    0.0000 C   0  0  0  0  0  0  0  0  0  0  0  0
   12.7500   -9.0933    0.0000 C   0  0  0  0  0  0  0  0  0  0  0  0
   12.0000   -7.7942    0.0000 C   0  0  0  0  0  0  0  0  0  0  0  0
   10.5000   -7.7942    0.0000 C   0  0  0  0  0  0  0  0  0  0  0  0
    9.7500   -6.4952    0.0000 C   0  0  0  0  0  0  0  0  0  0  0  0
    8.2500   -6.4952    0.0000 C   0  0  0  0  0  0  0  0  0  0  0  0
    7.5000   -7.7942    0.0000 O   0  0  0  0  0  0  0  0  0  0  0  0
    7.5000   -5.1962    0.0000 N   0  0  0  0  0  0  0  0  0  0  0  0
    6.0000   -5.1962    0.0000 C   0  0  0  0  0  0  0  0  0  0  0  0
    5.2500   -6.4952    0.0000 C   0  0  0  0  0  0  0  0  0  0  0  0
    3.7500   -6.4952    0.0000 C   0  0  0  0  0  0  0  0  0  0  0  0
    3.0000   -5.1962    0.0000 N   0  0  0  0  0  0  0  0  0  0  0  0
    1.5000   -5.1962    0.0000 C   0  0  0  0  0  0  0  0  0  0  0  0
    0.7500   -6.4952    0.0000 O   0  0  0  0  0  0  0  0  0  0  0  0
    0.7500   -3.8971    0.0000 C   0  0  0  0  0  0  0  0  0  0  0  0
    1.5000   -2.5981    0.0000 S   0  0  0  0  0  0  0  0  0  0  0  0
    0.7500   -1.2990    0.0000 C   0  0  0  0  0  0  0  0  0  0  0  0
    1.5000    0.0000    0.0000 C   0  0  0  0  0  0  0  0  0  0  0  0
    0.7500    1.2990    0.0000 C   0  0  0  0  0  0  0  0  0  0  0  0
   -0.7500    1.2990    0.0000 C   0  0  0  0  0  0  0  0  0  0  0  0
   -1.5000    0.0000    0.0000 C   0  0  0  0  0  0  0  0  0  0  0  0
   -0.7500   -1.2990    0.0000 C   0  0  0  0  0  0  0  0  0  0  0  0
   -1.5000   -2.5981    0.0000 N   0  0  0  0  0  0  0  0  0  0  0  0
   -3.0000   -2.5981    0.0000 C   0  0  0  0  0  0  0  0  0  0  0  0
   -3.7500   -1.2990    0.0000 C   0  0  0  0  0  0  0  0  0  0  0  0
   -0.7500   -3.8971    0.0000 C   0  0  0  0  0  0  0  0  0  0  0  0
   -1.5000   -5.1962    0.0000 O   0  0  0  0  0  0  0  0  0  0  0  0
    3.7500   -3.8971    0.0000 C   0  0  0  0  0  0  0  0  0  0  0  0
    5.2500   -3.8971    0.0000 C   0  0  0  0  0  0  0  0  0  0  0  0
  1  2  1  0
  2  3  1  0
  3  4  1  0
  4  5  1  0
  5  6  1  0
  6  7  1  0
  7  8  1  0
  8  9  1  0
  9 10  1  0
 10 11  1  0
 11 12  1  0
 12 13  1  0
 13 14  1  0
 14 15  1  0
 15 16  2  0
 15 17  1  0
 17 18  1  0
 18 19  1  0
 19 20  1  0
 20 21  1  0
 21 22  1  0
 22 23  2  0
 22 24  1  0
 24 25  1  0
 25 26  1  0
 26 27  2  0
 27 28  1  0
 28 29  2  0
 29 30  1  0
 30 31  2  0
 31 32  1  0
 32 33  1  0
 33 34  1  0
 32 35  1  0
 35 36  2  0
 21 37  1  0
 37 38  1  0
 38 18  1  0
 35 24  1  0
 31 26  1  0
M  END
>  <Compound_ID>  (524) 
CHEMBL4081419

>  <Molecule Name>  (524) 
nan

>  <Molecular Weight>  (524) 
543.82

>  <AlogP>  (524) 
6.71

>  <Smiles>  (524) 
CCCCCCCCCCCCCCC(=O)NC1CCN(C(=O)C2Sc3ccccc3N(CC)C2=O)CC1

>  <Standard Type>  (524) 
Inhibition

>  <Standard Relation>  (524) 
'='

>  <Standard Units>  (524) 
%

>  <Standard Value>  (524) 
-1.7

>  <Assay ChEMBL ID>  (524) 
CHEMBL4054286

>  <Assay Description>  (524) 
Inhibition of ALK (unknown origin) using poly (Glu, Tyr) 4:1 as substrate at 100 uM after 1 hr by ELISA relative to control

>  <BAO Format ID>  (524) 
BAO_0000357

>  <BAO Label>  (524) 
single protein format

>  <Assay Organism>  (524) 
Homo sapiens

>  <Target ChEMBL ID>  (524) 
CHEMBL4247

>  <Target Name>  (524) 
ALK tyrosine kinase receptor

>  <Target Organism>  (524) 
Homo sapiens

>  <Target Type>  (524) 
SINGLE PROTEIN

>  <Document ChEMBL ID>  (524) 
CHEMBL4052632

>  <Source Description>  (524) 
Scientific Literature

>  <Document Journal>  (524) 
Eur J Med Chem

>  <Document Year>  (524) 
2017.0

>  <Active>  (524) 
0.0

>  <bits>  (524) 
<rdkit.DataStructs.cDataStructs.ExplicitBitVect object at 0x000002422F1E2B20>

>  <Group>  (524) 
G2

$$$$

     RDKit          2D

 26 30  0  0  0  0  0  0  0  0999 V2000
   -4.6845  -11.4787    0.0000 C   0  0  0  0  0  0  0  0  0  0  0  0
   -6.1111  -11.0151    0.0000 C   0  0  0  0  0  0  0  0  0  0  0  0
   -6.4230   -9.5479    0.0000 N   0  0  0  0  0  0  0  0  0  0  0  0
   -5.3083   -8.5442    0.0000 N   0  0  0  0  0  0  0  0  0  0  0  0
   -5.3083   -7.0442    0.0000 N   0  0  0  0  0  0  0  0  0  0  0  0
   -3.8817   -6.5807    0.0000 C   0  0  0  0  0  0  0  0  0  0  0  0
   -3.0000   -7.7942    0.0000 C   0  0  0  0  0  0  0  0  0  0  0  0
   -1.5000   -7.7942    0.0000 C   0  0  0  0  0  0  0  0  0  0  0  0
   -0.7500   -9.0933    0.0000 C   0  0  0  0  0  0  0  0  0  0  0  0
    0.7500   -9.0933    0.0000 C   0  0  0  0  0  0  0  0  0  0  0  0
    1.5000   -7.7942    0.0000 N   0  0  0  0  0  0  0  0  0  0  0  0
    0.7500   -6.4952    0.0000 C   0  0  0  0  0  0  0  0  0  0  0  0
    1.5000   -5.1962    0.0000 N   0  0  0  0  0  0  0  0  0  0  0  0
    0.7500   -3.8971    0.0000 C   0  0  0  0  0  0  0  0  0  0  0  0
   -0.7500   -3.8971    0.0000 C   0  0  0  0  0  0  0  0  0  0  0  0
   -1.5000   -2.5981    0.0000 C   0  0  0  0  0  0  0  0  0  0  0  0
   -0.7500   -1.2990    0.0000 C   0  0  0  0  0  0  0  0  0  0  0  0
    0.7500   -1.2990    0.0000 C   0  0  0  0  0  0  0  0  0  0  0  0
    1.5000   -2.5981    0.0000 C   0  0  0  0  0  0  0  0  0  0  0  0
    1.5000    0.0000    0.0000 O   0  0  0  0  0  0  0  0  0  0  0  0
    0.7500    1.2990    0.0000 C   0  0  0  0  0  0  0  0  0  0  0  0
   -0.7500    1.2990    0.0000 C   0  0  0  0  0  0  0  0  0  0  0  0
   -1.5000    0.0000    0.0000 O   0  0  0  0  0  0  0  0  0  0  0  0
   -0.7500   -6.4952    0.0000 N   0  0  0  0  0  0  0  0  0  0  0  0
   -3.8817   -9.0078    0.0000 C   0  0  0  0  0  0  0  0  0  0  0  0
   -3.5698  -10.4750    0.0000 C   0  0  0  0  0  0  0  0  0  0  0  0
  1  2  1  0
  2  3  2  0
  3  4  1  0
  4  5  1  0
  5  6  2  0
  6  7  1  0
  7  8  1  0
  8  9  2  0
  9 10  1  0
 10 11  2  0
 11 12  1  0
 12 13  1  0
 13 14  1  0
 14 15  2  0
 15 16  1  0
 16 17  2  0
 17 18  1  0
 18 19  2  0
 18 20  1  0
 20 21  1  0
 21 22  1  0
 22 23  1  0
 12 24  2  0
  7 25  2  0
 25 26  1  0
 26  1  2  0
 25  4  1  0
 24  8  1  0
 19 14  1  0
 23 17  1  0
M  END
>  <Compound_ID>  (525) 
CHEMBL361894

>  <Molecule Name>  (525) 
GW806290X

>  <Molecular Weight>  (525) 
346.35

>  <AlogP>  (525) 
2.7

>  <Smiles>  (525) 
c1cnn2ncc(-c3ccnc(Nc4ccc5c(c4)OCCO5)n3)c2c1

>  <Standard Type>  (525) 
Inhibition

>  <Standard Relation>  (525) 
'='

>  <Standard Units>  (525) 
%

>  <Standard Value>  (525) 
3.96

>  <Assay ChEMBL ID>  (525) 
CHEMBL1962240

>  <Assay Description>  (525) 
GSK_PKIS: ALK mean inhibition at 0.1 uM [Nanosyn]

>  <BAO Format ID>  (525) 
BAO_0000357

>  <BAO Label>  (525) 
single protein format

>  <Assay Organism>  (525) 
None

>  <Target ChEMBL ID>  (525) 
CHEMBL4247

>  <Target Name>  (525) 
ALK tyrosine kinase receptor

>  <Target Organism>  (525) 
Homo sapiens

>  <Target Type>  (525) 
SINGLE PROTEIN

>  <Document ChEMBL ID>  (525) 
CHEMBL1961873

>  <Source Description>  (525) 
GSK Published Kinase Inhibitor Set

>  <Document Journal>  (525) 
nan

>  <Document Year>  (525) 
nan

>  <Active>  (525) 
0.0

>  <bits>  (525) 
<rdkit.DataStructs.cDataStructs.ExplicitBitVect object at 0x000002422F1E0120>

>  <Group>  (525) 
G2

$$$$

     RDKit          2D

 26 28  0  0  0  0  0  0  0  0999 V2000
   -3.7548   -2.1855    0.0000 C   0  0  0  0  0  0  0  0  0  0  0  0
   -2.6401   -3.1891    0.0000 C   0  0  0  0  0  0  0  0  0  0  0  0
   -1.2135   -2.7256    0.0000 N   0  0  0  0  0  0  0  0  0  0  0  0
   -0.0000   -3.6073    0.0000 C   0  0  0  0  0  0  0  0  0  0  0  0
   -0.0000   -5.1073    0.0000 C   0  0  0  0  0  0  0  0  0  0  0  0
    1.2135   -5.9890    0.0000 N   0  0  0  0  0  0  0  0  0  0  0  0
    0.7500   -7.4156    0.0000 O   0  0  0  0  0  0  0  0  0  0  0  0
   -0.7500   -7.4156    0.0000 N   0  0  0  0  0  0  0  0  0  0  0  0
   -1.2135   -5.9890    0.0000 C   0  0  0  0  0  0  0  0  0  0  0  0
   -2.6401   -5.5255    0.0000 N   0  0  0  0  0  0  0  0  0  0  0  0
    1.2135   -2.7256    0.0000 N   0  0  0  0  0  0  0  0  0  0  0  0
    0.7500   -1.2990    0.0000 C   0  0  0  0  0  0  0  0  0  0  0  0
    1.5000    0.0000    0.0000 C   0  0  0  0  0  0  0  0  0  0  0  0
    3.0000    0.0000    0.0000 C   0  0  0  0  0  0  0  0  0  0  0  0
    4.5000    0.0000    0.0000 C   0  0  0  0  0  0  0  0  0  0  0  0
    6.0000    0.0000    0.0000 C   0  0  0  0  0  0  0  0  0  0  0  0
    6.7500    1.2990    0.0000 N   0  0  0  0  0  0  0  0  0  0  0  0
    0.7500    1.2990    0.0000 N   0  0  0  0  0  0  0  0  0  0  0  0
   -0.7500    1.2990    0.0000 C   0  0  0  0  0  0  0  0  0  0  0  0
   -1.5000    0.0000    0.0000 C   0  0  0  0  0  0  0  0  0  0  0  0
   -3.0000    0.0000    0.0000 O   0  0  0  0  0  0  0  0  0  0  0  0
   -3.7500    1.2990    0.0000 C   0  0  0  0  0  0  0  0  0  0  0  0
   -5.2500    1.2990    0.0000 C   0  0  0  0  0  0  0  0  0  0  0  0
   -6.0000    2.5981    0.0000 C   0  0  0  0  0  0  0  0  0  0  0  0
   -7.5000    2.5981    0.0000 N   0  0  0  0  0  0  0  0  0  0  0  0
   -0.7500   -1.2990    0.0000 C   0  0  0  0  0  0  0  0  0  0  0  0
  1  2  1  0
  2  3  1  0
  3  4  1  0
  4  5  1  0
  5  6  2  0
  6  7  1  0
  7  8  1  0
  8  9  2  0
  9 10  1  0
  4 11  2  0
 11 12  1  0
 12 13  2  0
 13 14  1  0
 14 15  3  0
 15 16  1  0
 16 17  1  0
 13 18  1  0
 18 19  2  0
 19 20  1  0
 20 21  1  0
 21 22  1  0
 22 23  1  0
 23 24  1  0
 24 25  1  0
 20 26  2  0
 26  3  1  0
  9  5  1  0
 26 12  1  0
M  END
>  <Compound_ID>  (526) 
CHEMBL1794064

>  <Molecule Name>  (526) 
GSK-561866B

>  <Molecular Weight>  (526) 
470.41

>  <AlogP>  (526) 
0.12

>  <Smiles>  (526) 
CCn1c(-c2nonc2N)nc2c(C#CCN)ncc(OCCCN)c21

>  <Standard Type>  (526) 
Inhibition

>  <Standard Relation>  (526) 
'='

>  <Standard Units>  (526) 
%

>  <Standard Value>  (526) 
-6.6

>  <Assay ChEMBL ID>  (526) 
CHEMBL1962240

>  <Assay Description>  (526) 
GSK_PKIS: ALK mean inhibition at 0.1 uM [Nanosyn]

>  <BAO Format ID>  (526) 
BAO_0000357

>  <BAO Label>  (526) 
single protein format

>  <Assay Organism>  (526) 
None

>  <Target ChEMBL ID>  (526) 
CHEMBL4247

>  <Target Name>  (526) 
ALK tyrosine kinase receptor

>  <Target Organism>  (526) 
Homo sapiens

>  <Target Type>  (526) 
SINGLE PROTEIN

>  <Document ChEMBL ID>  (526) 
CHEMBL1961873

>  <Source Description>  (526) 
GSK Published Kinase Inhibitor Set

>  <Document Journal>  (526) 
nan

>  <Document Year>  (526) 
nan

>  <Active>  (526) 
0.0

>  <bits>  (526) 
<rdkit.DataStructs.cDataStructs.ExplicitBitVect object at 0x000002422F1E0430>

>  <Group>  (526) 
G2

$$$$

     RDKit          2D

 44 50  0  0  0  0  0  0  0  0999 V2000
   -0.4702  -13.1562    0.0000 O   0  0  0  0  0  0  0  0  0  0  0  0
    1.0216  -12.9994    0.0000 C   0  0  0  0  0  0  0  0  0  0  0  0
    1.6317  -11.6291    0.0000 O   0  0  0  0  0  0  0  0  0  0  0  0
    0.7500  -10.4156    0.0000 C   0  0  0  0  0  0  0  0  0  0  0  0
   -0.7500  -10.4156    0.0000 C   0  0  0  0  0  0  0  0  0  0  0  0
   -1.2135   -8.9890    0.0000 N   0  0  0  0  0  0  0  0  0  0  0  0
    0.0000   -8.1073    0.0000 C   0  0  0  0  0  0  0  0  0  0  0  0
   -0.0000   -6.6073    0.0000 C   0  0  0  0  0  0  0  0  0  0  0  0
   -0.0000   -5.1073    0.0000 C   0  0  0  0  0  0  0  0  0  0  0  0
   -0.0000   -3.6073    0.0000 C   0  0  0  0  0  0  0  0  0  0  0  0
    1.2135   -2.7256    0.0000 C   0  0  0  0  0  0  0  0  0  0  0  0
    0.7500   -1.2990    0.0000 C   0  0  0  0  0  0  0  0  0  0  0  0
    1.5000    0.0000    0.0000 N   0  0  0  0  0  0  0  0  0  0  0  0
    0.7500    1.2990    0.0000 C   0  0  0  0  0  0  0  0  0  0  0  0
   -0.7500    1.2990    0.0000 N   0  0  0  0  0  0  0  0  0  0  0  0
   -1.5000    0.0000    0.0000 C   0  0  0  0  0  0  0  0  0  0  0  0
   -3.0000    0.0000    0.0000 N   0  0  0  0  0  0  0  0  0  0  0  0
   -3.7500    1.2990    0.0000 C   0  0  0  0  0  0  0  0  0  0  0  0
   -3.0000    2.5981    0.0000 C   0  0  0  0  0  0  0  0  0  0  0  0
   -3.7500    3.8971    0.0000 C   0  0  0  0  0  0  0  0  0  0  0  0
   -5.2500    3.8971    0.0000 C   0  0  0  0  0  0  0  0  0  0  0  0
   -6.0000    2.5981    0.0000 C   0  0  0  0  0  0  0  0  0  0  0  0
   -7.4672    2.9099    0.0000 C   0  0  0  0  0  0  0  0  0  0  0  0
   -7.6240    4.4017    0.0000 C   0  0  0  0  0  0  0  0  0  0  0  0
   -6.2537    5.0118    0.0000 N   0  0  0  0  0  0  0  0  0  0  0  0
   -5.9418    6.4791    0.0000 C   0  0  0  0  0  0  0  0  0  0  0  0
   -7.0565    7.4827    0.0000 C   0  0  0  0  0  0  0  0  0  0  0  0
   -6.7447    8.9500    0.0000 C   0  0  0  0  0  0  0  0  0  0  0  0
   -7.8594    9.9537    0.0000 C   0  0  0  0  0  0  0  0  0  0  0  0
   -7.5475   11.4209    0.0000 F   0  0  0  0  0  0  0  0  0  0  0  0
   -9.2860    9.4901    0.0000 C   0  0  0  0  0  0  0  0  0  0  0  0
   -9.5978    8.0229    0.0000 C   0  0  0  0  0  0  0  0  0  0  0  0
   -8.4831    7.0192    0.0000 C   0  0  0  0  0  0  0  0  0  0  0  0
   -8.7950    5.5520    0.0000 F   0  0  0  0  0  0  0  0  0  0  0  0
   -5.2500    1.2990    0.0000 C   0  0  0  0  0  0  0  0  0  0  0  0
   -0.7500   -1.2990    0.0000 C   0  0  0  0  0  0  0  0  0  0  0  0
   -1.2135   -2.7256    0.0000 S   0  0  0  0  0  0  0  0  0  0  0  0
    1.2135   -8.9890    0.0000 C   0  0  0  0  0  0  0  0  0  0  0  0
    1.9033  -14.2129    0.0000 N   0  0  0  0  0  0  0  0  0  0  0  0
    1.2931  -15.5833    0.0000 C   0  0  0  0  0  0  0  0  0  0  0  0
    2.1748  -16.7968    0.0000 C   0  0  0  0  0  0  0  0  0  0  0  0
    3.6666  -16.6400    0.0000 O   0  0  0  0  0  0  0  0  0  0  0  0
    4.2767  -15.2697    0.0000 C   0  0  0  0  0  0  0  0  0  0  0  0
    3.3950  -14.0561    0.0000 C   0  0  0  0  0  0  0  0  0  0  0  0
  1  2  2  0
  2  3  1  0
  4  3  1  1
  4  5  1  0
  5  6  1  0
  6  7  1  0
  7  8  1  6
  8  9  3  0
  9 10  1  0
 10 11  2  0
 11 12  1  0
 12 13  2  0
 13 14  1  0
 14 15  2  0
 15 16  1  0
 16 17  1  0
 17 18  1  0
 18 19  2  0
 19 20  1  0
 20 21  2  0
 21 22  1  0
 22 23  1  0
 23 24  2  0
 24 25  1  0
 25 26  1  0
 26 27  1  0
 27 28  2  0
 28 29  1  0
 29 30  1  0
 29 31  2  0
 31 32  1  0
 32 33  2  0
 33 34  1  0
 22 35  2  0
 16 36  2  0
 36 37  1  0
  7 38  1  0
  2 39  1  0
 39 40  1  0
 40 41  1  0
 41 42  1  0
 42 43  1  0
 43 44  1  0
 38  4  1  0
 44 39  1  0
 37 10  1  0
 36 12  1  0
 35 18  1  0
 25 21  1  0
 33 27  1  0
M  END
>  <Compound_ID>  (527) 
CHEMBL1909410

>  <Molecule Name>  (527) 
GSK-259178A

>  <Molecular Weight>  (527) 
728.7

>  <AlogP>  (527) 
5.27

>  <Smiles>  (527) 
O=C(O[C@H]1CN[C@H](C#Cc2cc3ncnc(Nc4ccc5c(ccn5Cc5cc(F)ccc5F)c4)c3s2)C1)N1CCOCC1

>  <Standard Type>  (527) 
Inhibition

>  <Standard Relation>  (527) 
'='

>  <Standard Units>  (527) 
%

>  <Standard Value>  (527) 
4.73

>  <Assay ChEMBL ID>  (527) 
CHEMBL1962241

>  <Assay Description>  (527) 
GSK_PKIS: ALK mean inhibition at 1 uM [Nanosyn]

>  <BAO Format ID>  (527) 
BAO_0000357

>  <BAO Label>  (527) 
single protein format

>  <Assay Organism>  (527) 
None

>  <Target ChEMBL ID>  (527) 
CHEMBL4247

>  <Target Name>  (527) 
ALK tyrosine kinase receptor

>  <Target Organism>  (527) 
Homo sapiens

>  <Target Type>  (527) 
SINGLE PROTEIN

>  <Document ChEMBL ID>  (527) 
CHEMBL1961873

>  <Source Description>  (527) 
GSK Published Kinase Inhibitor Set

>  <Document Journal>  (527) 
nan

>  <Document Year>  (527) 
nan

>  <Active>  (527) 
0.0

>  <bits>  (527) 
<rdkit.DataStructs.cDataStructs.ExplicitBitVect object at 0x000002422F1E00B0>

>  <Group>  (527) 
G2

$$$$

     RDKit          2D

 25 28  0  0  0  0  0  0  0  0999 V2000
   -3.7548   -2.1855    0.0000 C   0  0  0  0  0  0  0  0  0  0  0  0
   -2.6401   -3.1891    0.0000 C   0  0  0  0  0  0  0  0  0  0  0  0
   -1.2135   -2.7256    0.0000 N   0  0  0  0  0  0  0  0  0  0  0  0
   -0.0000   -3.6073    0.0000 C   0  0  0  0  0  0  0  0  0  0  0  0
   -0.0000   -5.1073    0.0000 C   0  0  0  0  0  0  0  0  0  0  0  0
    1.2135   -5.9890    0.0000 N   0  0  0  0  0  0  0  0  0  0  0  0
    0.7500   -7.4156    0.0000 O   0  0  0  0  0  0  0  0  0  0  0  0
   -0.7500   -7.4156    0.0000 N   0  0  0  0  0  0  0  0  0  0  0  0
   -1.2135   -5.9890    0.0000 C   0  0  0  0  0  0  0  0  0  0  0  0
   -2.6401   -5.5255    0.0000 N   0  0  0  0  0  0  0  0  0  0  0  0
    1.2135   -2.7256    0.0000 N   0  0  0  0  0  0  0  0  0  0  0  0
    0.7500   -1.2990    0.0000 C   0  0  0  0  0  0  0  0  0  0  0  0
    1.5000    0.0000    0.0000 C   0  0  0  0  0  0  0  0  0  0  0  0
    0.7500    1.2990    0.0000 N   0  0  0  0  0  0  0  0  0  0  0  0
   -0.7500    1.2990    0.0000 C   0  0  0  0  0  0  0  0  0  0  0  0
   -1.5000    0.0000    0.0000 C   0  0  0  0  0  0  0  0  0  0  0  0
   -3.0000    0.0000    0.0000 C   0  0  0  0  0  0  0  0  0  0  0  0
   -3.7500   -1.2990    0.0000 O   0  0  0  0  0  0  0  0  0  0  0  0
   -3.7500    1.2990    0.0000 N   0  0  0  0  0  0  0  0  0  0  0  0
   -5.2418    1.4558    0.0000 C   0  0  0  0  0  0  0  0  0  0  0  0
   -5.5537    2.9231    0.0000 C   0  0  0  0  0  0  0  0  0  0  0  0
   -4.2546    3.6731    0.0000 C   0  0  0  0  0  0  0  0  0  0  0  0
   -4.0978    5.1648    0.0000 N   0  0  0  0  0  0  0  0  0  0  0  0
   -3.1399    2.6694    0.0000 C   0  0  0  0  0  0  0  0  0  0  0  0
   -0.7500   -1.2990    0.0000 C   0  0  0  0  0  0  0  0  0  0  0  0
  1  2  1  0
  2  3  1  0
  3  4  1  0
  4  5  1  0
  5  6  2  0
  6  7  1  0
  7  8  1  0
  8  9  2  0
  9 10  1  0
  4 11  2  0
 11 12  1  0
 12 13  2  0
 13 14  1  0
 14 15  2  0
 15 16  1  0
 16 17  1  0
 17 18  2  0
 17 19  1  0
 19 20  1  0
 20 21  1  0
 21 22  1  0
 22 23  1  6
 22 24  1  0
 16 25  2  0
 25  3  1  0
  9  5  1  0
 25 12  1  0
 24 19  1  0
M  END
>  <Compound_ID>  (528) 
CHEMBL1909384

>  <Molecule Name>  (528) 
nan

>  <Molecular Weight>  (528) 
378.82

>  <AlogP>  (528) 
0.26

>  <Smiles>  (528) 
CCn1c(-c2nonc2N)nc2cncc(C(=O)N3CC[C@H](N)C3)c21

>  <Standard Type>  (528) 
Inhibition

>  <Standard Relation>  (528) 
'='

>  <Standard Units>  (528) 
%

>  <Standard Value>  (528) 
3.95

>  <Assay ChEMBL ID>  (528) 
CHEMBL1962240

>  <Assay Description>  (528) 
GSK_PKIS: ALK mean inhibition at 0.1 uM [Nanosyn]

>  <BAO Format ID>  (528) 
BAO_0000357

>  <BAO Label>  (528) 
single protein format

>  <Assay Organism>  (528) 
None

>  <Target ChEMBL ID>  (528) 
CHEMBL4247

>  <Target Name>  (528) 
ALK tyrosine kinase receptor

>  <Target Organism>  (528) 
Homo sapiens

>  <Target Type>  (528) 
SINGLE PROTEIN

>  <Document ChEMBL ID>  (528) 
CHEMBL1961873

>  <Source Description>  (528) 
GSK Published Kinase Inhibitor Set

>  <Document Journal>  (528) 
nan

>  <Document Year>  (528) 
nan

>  <Active>  (528) 
0.0

>  <bits>  (528) 
<rdkit.DataStructs.cDataStructs.ExplicitBitVect object at 0x000002422F1E1460>

>  <Group>  (528) 
G2

$$$$

     RDKit          2D

 39 44  0  0  0  0  0  0  0  0999 V2000
   -0.4702  -13.1562    0.0000 O   0  0  0  0  0  0  0  0  0  0  0  0
    1.0216  -12.9994    0.0000 C   0  0  0  0  0  0  0  0  0  0  0  0
    1.6317  -11.6291    0.0000 O   0  0  0  0  0  0  0  0  0  0  0  0
    0.7500  -10.4156    0.0000 C   0  0  0  0  0  0  0  0  0  0  0  0
   -0.7500  -10.4156    0.0000 C   0  0  0  0  0  0  0  0  0  0  0  0
   -1.2135   -8.9890    0.0000 N   0  0  0  0  0  0  0  0  0  0  0  0
    0.0000   -8.1073    0.0000 C   0  0  0  0  0  0  0  0  0  0  0  0
   -0.0000   -6.6073    0.0000 C   0  0  0  0  0  0  0  0  0  0  0  0
   -0.0000   -5.1073    0.0000 C   0  0  0  0  0  0  0  0  0  0  0  0
   -0.0000   -3.6073    0.0000 C   0  0  0  0  0  0  0  0  0  0  0  0
    1.2135   -2.7256    0.0000 C   0  0  0  0  0  0  0  0  0  0  0  0
    0.7500   -1.2990    0.0000 C   0  0  0  0  0  0  0  0  0  0  0  0
    1.5000    0.0000    0.0000 N   0  0  0  0  0  0  0  0  0  0  0  0
    0.7500    1.2990    0.0000 C   0  0  0  0  0  0  0  0  0  0  0  0
   -0.7500    1.2990    0.0000 N   0  0  0  0  0  0  0  0  0  0  0  0
   -1.5000    0.0000    0.0000 C   0  0  0  0  0  0  0  0  0  0  0  0
   -3.0000    0.0000    0.0000 N   0  0  0  0  0  0  0  0  0  0  0  0
   -3.7500    1.2990    0.0000 C   0  0  0  0  0  0  0  0  0  0  0  0
   -3.0000    2.5981    0.0000 C   0  0  0  0  0  0  0  0  0  0  0  0
   -3.7500    3.8971    0.0000 C   0  0  0  0  0  0  0  0  0  0  0  0
   -5.2500    3.8971    0.0000 C   0  0  0  0  0  0  0  0  0  0  0  0
   -6.0000    5.1962    0.0000 C   0  0  0  0  0  0  0  0  0  0  0  0
   -5.2500    6.4952    0.0000 C   0  0  0  0  0  0  0  0  0  0  0  0
   -3.7500    6.4952    0.0000 C   0  0  0  0  0  0  0  0  0  0  0  0
   -3.0000    7.7942    0.0000 C   0  0  0  0  0  0  0  0  0  0  0  0
   -3.7500    9.0933    0.0000 C   0  0  0  0  0  0  0  0  0  0  0  0
   -5.2500    9.0933    0.0000 C   0  0  0  0  0  0  0  0  0  0  0  0
   -6.0000    7.7942    0.0000 C   0  0  0  0  0  0  0  0  0  0  0  0
   -6.0000    2.5981    0.0000 C   0  0  0  0  0  0  0  0  0  0  0  0
   -5.2500    1.2990    0.0000 C   0  0  0  0  0  0  0  0  0  0  0  0
   -0.7500   -1.2990    0.0000 C   0  0  0  0  0  0  0  0  0  0  0  0
   -1.2135   -2.7256    0.0000 S   0  0  0  0  0  0  0  0  0  0  0  0
    1.2135   -8.9890    0.0000 C   0  0  0  0  0  0  0  0  0  0  0  0
    1.9033  -14.2129    0.0000 N   0  0  0  0  0  0  0  0  0  0  0  0
    1.2931  -15.5833    0.0000 C   0  0  0  0  0  0  0  0  0  0  0  0
    2.1748  -16.7968    0.0000 C   0  0  0  0  0  0  0  0  0  0  0  0
    3.6666  -16.6400    0.0000 O   0  0  0  0  0  0  0  0  0  0  0  0
    4.2767  -15.2697    0.0000 C   0  0  0  0  0  0  0  0  0  0  0  0
    3.3950  -14.0561    0.0000 C   0  0  0  0  0  0  0  0  0  0  0  0
  1  2  2  0
  2  3  1  0
  4  3  1  1
  4  5  1  0
  5  6  1  0
  6  7  1  0
  7  8  1  6
  8  9  3  0
  9 10  1  0
 10 11  2  0
 11 12  1  0
 12 13  2  0
 13 14  1  0
 14 15  2  0
 15 16  1  0
 16 17  1  0
 17 18  1  0
 18 19  2  0
 19 20  1  0
 20 21  2  0
 21 22  1  0
 22 23  1  0
 23 24  2  0
 24 25  1  0
 25 26  2  0
 26 27  1  0
 27 28  2  0
 21 29  1  0
 29 30  2  0
 16 31  2  0
 31 32  1  0
  7 33  1  0
  2 34  1  0
 34 35  1  0
 35 36  1  0
 36 37  1  0
 37 38  1  0
 38 39  1  0
 33  4  1  0
 39 34  1  0
 32 10  1  0
 31 12  1  0
 30 18  1  0
 28 23  1  0
M  END
>  <Compound_ID>  (529) 
CHEMBL1909409

>  <Molecule Name>  (529) 
GSK-238583A

>  <Molecular Weight>  (529) 
653.68

>  <AlogP>  (529) 
4.58

>  <Smiles>  (529) 
O=C(O[C@H]1CN[C@H](C#Cc2cc3ncnc(Nc4ccc(Cc5ccccc5)cc4)c3s2)C1)N1CCOCC1

>  <Standard Type>  (529) 
Inhibition

>  <Standard Relation>  (529) 
'='

>  <Standard Units>  (529) 
%

>  <Standard Value>  (529) 
0.46

>  <Assay ChEMBL ID>  (529) 
CHEMBL1962241

>  <Assay Description>  (529) 
GSK_PKIS: ALK mean inhibition at 1 uM [Nanosyn]

>  <BAO Format ID>  (529) 
BAO_0000357

>  <BAO Label>  (529) 
single protein format

>  <Assay Organism>  (529) 
None

>  <Target ChEMBL ID>  (529) 
CHEMBL4247

>  <Target Name>  (529) 
ALK tyrosine kinase receptor

>  <Target Organism>  (529) 
Homo sapiens

>  <Target Type>  (529) 
SINGLE PROTEIN

>  <Document ChEMBL ID>  (529) 
CHEMBL1961873

>  <Source Description>  (529) 
GSK Published Kinase Inhibitor Set

>  <Document Journal>  (529) 
nan

>  <Document Year>  (529) 
nan

>  <Active>  (529) 
0.0

>  <bits>  (529) 
<rdkit.DataStructs.cDataStructs.ExplicitBitVect object at 0x000002422F1E1380>

>  <Group>  (529) 
G2

$$$$

     RDKit          2D

 26 29  0  0  0  0  0  0  0  0999 V2000
   -9.1645    1.7722    0.0000 C   0  0  0  0  0  0  0  0  0  0  0  0
   -8.0498    0.7685    0.0000 O   0  0  0  0  0  0  0  0  0  0  0  0
   -6.6232    1.2320    0.0000 C   0  0  0  0  0  0  0  0  0  0  0  0
   -6.3114    2.6992    0.0000 C   0  0  0  0  0  0  0  0  0  0  0  0
   -4.8848    3.1627    0.0000 C   0  0  0  0  0  0  0  0  0  0  0  0
   -3.7701    2.1590    0.0000 C   0  0  0  0  0  0  0  0  0  0  0  0
   -4.0819    0.6918    0.0000 C   0  0  0  0  0  0  0  0  0  0  0  0
   -2.9672   -0.3119    0.0000 N   0  0  0  0  0  0  0  0  0  0  0  0
   -3.1240   -1.8037    0.0000 C   0  0  0  0  0  0  0  0  0  0  0  0
   -1.7537   -2.4138    0.0000 N   0  0  0  0  0  0  0  0  0  0  0  0
   -0.7500   -1.2990    0.0000 C   0  0  0  0  0  0  0  0  0  0  0  0
    0.7500   -1.2990    0.0000 C   0  0  0  0  0  0  0  0  0  0  0  0
    1.5000   -2.5981    0.0000 N   0  0  0  0  0  0  0  0  0  0  0  0
    3.0000   -2.5981    0.0000 N   0  0  0  0  0  0  0  0  0  0  0  0
    3.7500   -3.8971    0.0000 C   0  0  0  0  0  0  0  0  0  0  0  0
    5.2500   -3.8971    0.0000 C   0  0  0  0  0  0  0  0  0  0  0  0
    6.0000   -5.1962    0.0000 C   0  0  0  0  0  0  0  0  0  0  0  0
    7.5000   -5.1962    0.0000 C   0  0  0  0  0  0  0  0  0  0  0  0
    8.2500   -3.8971    0.0000 N   0  0  0  0  0  0  0  0  0  0  0  0
    7.5000   -2.5981    0.0000 C   0  0  0  0  0  0  0  0  0  0  0  0
    6.0000   -2.5981    0.0000 C   0  0  0  0  0  0  0  0  0  0  0  0
    1.5000    0.0000    0.0000 N   0  0  0  0  0  0  0  0  0  0  0  0
    0.7500    1.2990    0.0000 C   0  0  0  0  0  0  0  0  0  0  0  0
   -0.7500    1.2990    0.0000 N   0  0  0  0  0  0  0  0  0  0  0  0
   -1.5000    0.0000    0.0000 C   0  0  0  0  0  0  0  0  0  0  0  0
   -5.5085    0.2283    0.0000 C   0  0  0  0  0  0  0  0  0  0  0  0
  1  2  1  0
  2  3  1  0
  3  4  2  0
  4  5  1  0
  5  6  2  0
  6  7  1  0
  7  8  1  0
  8  9  1  0
  9 10  2  0
 10 11  1  0
 11 12  2  0
 12 13  1  0
 13 14  1  0
 14 15  2  0
 15 16  1  0
 16 17  2  0
 17 18  1  0
 18 19  2  0
 19 20  1  0
 20 21  2  0
 12 22  1  0
 22 23  2  0
 23 24  1  0
 24 25  2  0
  7 26  2  0
 26  3  1  0
 25  8  1  0
 25 11  1  0
 21 16  1  0
M  END
>  <Compound_ID>  (530) 
CHEMBL204934

>  <Molecule Name>  (530) 
GW813360X

>  <Molecular Weight>  (530) 
345.37

>  <AlogP>  (530) 
2.67

>  <Smiles>  (530) 
COc1cccc(-n2cnc3c(N/N=C/c4ccncc4)ncnc32)c1

>  <Standard Type>  (530) 
Inhibition

>  <Standard Relation>  (530) 
'='

>  <Standard Units>  (530) 
%

>  <Standard Value>  (530) 
-1.9

>  <Assay ChEMBL ID>  (530) 
CHEMBL1962240

>  <Assay Description>  (530) 
GSK_PKIS: ALK mean inhibition at 0.1 uM [Nanosyn]

>  <BAO Format ID>  (530) 
BAO_0000357

>  <BAO Label>  (530) 
single protein format

>  <Assay Organism>  (530) 
None

>  <Target ChEMBL ID>  (530) 
CHEMBL4247

>  <Target Name>  (530) 
ALK tyrosine kinase receptor

>  <Target Organism>  (530) 
Homo sapiens

>  <Target Type>  (530) 
SINGLE PROTEIN

>  <Document ChEMBL ID>  (530) 
CHEMBL1961873

>  <Source Description>  (530) 
GSK Published Kinase Inhibitor Set

>  <Document Journal>  (530) 
nan

>  <Document Year>  (530) 
nan

>  <Active>  (530) 
0.0

>  <bits>  (530) 
<rdkit.DataStructs.cDataStructs.ExplicitBitVect object at 0x000002422F1E1070>

>  <Group>  (530) 
G2

$$$$

     RDKit          2D

 20 23  0  0  0  0  0  0  0  0999 V2000
   -1.8373   -5.6601    0.0000 O   0  0  0  0  0  0  0  0  0  0  0  0
   -2.9520   -4.6564    0.0000 C   0  0  0  0  0  0  0  0  0  0  0  0
   -2.6401   -3.1891    0.0000 N   0  0  0  0  0  0  0  0  0  0  0  0
   -1.2135   -2.7256    0.0000 C   0  0  0  0  0  0  0  0  0  0  0  0
   -0.0000   -3.6073    0.0000 N   0  0  0  0  0  0  0  0  0  0  0  0
    1.2135   -2.7256    0.0000 N   0  0  0  0  0  0  0  0  0  0  0  0
    0.7500   -1.2990    0.0000 C   0  0  0  0  0  0  0  0  0  0  0  0
    1.5000    0.0000    0.0000 N   0  0  0  0  0  0  0  0  0  0  0  0
    0.7500    1.2990    0.0000 C   0  0  0  0  0  0  0  0  0  0  0  0
    1.5000    2.5981    0.0000 C   0  0  0  0  0  0  0  0  0  0  0  0
    0.8899    3.9684    0.0000 C   0  0  0  0  0  0  0  0  0  0  0  0
    2.0046    4.9721    0.0000 C   0  0  0  0  0  0  0  0  0  0  0  0
    3.3037    4.2221    0.0000 C   0  0  0  0  0  0  0  0  0  0  0  0
    2.9918    2.7549    0.0000 O   0  0  0  0  0  0  0  0  0  0  0  0
   -0.7500    1.2990    0.0000 C   0  0  0  0  0  0  0  0  0  0  0  0
   -1.5000    0.0000    0.0000 C   0  0  0  0  0  0  0  0  0  0  0  0
   -0.7500   -1.2990    0.0000 C   0  0  0  0  0  0  0  0  0  0  0  0
   -4.3786   -5.1199    0.0000 C   0  0  0  0  0  0  0  0  0  0  0  0
   -5.3823   -6.2346    0.0000 C   0  0  0  0  0  0  0  0  0  0  0  0
   -5.8458   -4.8080    0.0000 C   0  0  0  0  0  0  0  0  0  0  0  0
  1  2  2  0
  2  3  1  0
  3  4  1  0
  4  5  2  0
  5  6  1  0
  6  7  1  0
  7  8  2  0
  8  9  1  0
  9 10  1  0
 10 11  2  0
 11 12  1  0
 12 13  2  0
 13 14  1  0
  9 15  2  0
 15 16  1  0
 16 17  2  0
  2 18  1  0
 18 19  1  0
 19 20  1  0
 17  4  1  0
 20 18  1  0
 17  7  1  0
 14 10  1  0
M  END
>  <Compound_ID>  (531) 
CHEMBL101804

>  <Molecule Name>  (531) 
nan

>  <Molecular Weight>  (531) 
268.28

>  <AlogP>  (531) 
2.57

>  <Smiles>  (531) 
O=C(Nc1n[nH]c2nc(-c3ccco3)ccc12)C1CC1

>  <Standard Type>  (531) 
Inhibition

>  <Standard Relation>  (531) 
'='

>  <Standard Units>  (531) 
%

>  <Standard Value>  (531) 
2.65

>  <Assay ChEMBL ID>  (531) 
CHEMBL1962241

>  <Assay Description>  (531) 
GSK_PKIS: ALK mean inhibition at 1 uM [Nanosyn]

>  <BAO Format ID>  (531) 
BAO_0000357

>  <BAO Label>  (531) 
single protein format

>  <Assay Organism>  (531) 
None

>  <Target ChEMBL ID>  (531) 
CHEMBL4247

>  <Target Name>  (531) 
ALK tyrosine kinase receptor

>  <Target Organism>  (531) 
Homo sapiens

>  <Target Type>  (531) 
SINGLE PROTEIN

>  <Document ChEMBL ID>  (531) 
CHEMBL1961873

>  <Source Description>  (531) 
GSK Published Kinase Inhibitor Set

>  <Document Journal>  (531) 
nan

>  <Document Year>  (531) 
nan

>  <Active>  (531) 
0.0

>  <bits>  (531) 
<rdkit.DataStructs.cDataStructs.ExplicitBitVect object at 0x000002422F1E0350>

>  <Group>  (531) 
G2

$$$$

     RDKit          2D

 24 27  0  0  0  0  0  0  0  0999 V2000
  -10.4431    3.8367    0.0000 Cl  0  0  0  0  0  0  0  0  0  0  0  0
   -9.3284    2.8330    0.0000 C   0  0  0  0  0  0  0  0  0  0  0  0
   -7.9018    3.2966    0.0000 C   0  0  0  0  0  0  0  0  0  0  0  0
   -6.7871    2.2929    0.0000 C   0  0  0  0  0  0  0  0  0  0  0  0
   -7.0990    0.8256    0.0000 C   0  0  0  0  0  0  0  0  0  0  0  0
   -5.9843   -0.1781    0.0000 C   0  0  0  0  0  0  0  0  0  0  0  0
   -6.2961   -1.6453    0.0000 N   0  0  0  0  0  0  0  0  0  0  0  0
   -5.1814   -2.6490    0.0000 C   0  0  0  0  0  0  0  0  0  0  0  0
   -5.4933   -4.1162    0.0000 N   0  0  0  0  0  0  0  0  0  0  0  0
   -4.3786   -5.1199    0.0000 C   0  0  0  0  0  0  0  0  0  0  0  0
   -2.9520   -4.6564    0.0000 C   0  0  0  0  0  0  0  0  0  0  0  0
   -2.6401   -3.1891    0.0000 C   0  0  0  0  0  0  0  0  0  0  0  0
   -1.2135   -2.7256    0.0000 C   0  0  0  0  0  0  0  0  0  0  0  0
   -0.0000   -3.6073    0.0000 C   0  0  0  0  0  0  0  0  0  0  0  0
    1.2135   -2.7256    0.0000 N   0  0  0  0  0  0  0  0  0  0  0  0
    0.7500   -1.2990    0.0000 N   0  0  0  0  0  0  0  0  0  0  0  0
    1.5000    0.0000    0.0000 N   0  0  0  0  0  0  0  0  0  0  0  0
    0.7500    1.2990    0.0000 C   0  0  0  0  0  0  0  0  0  0  0  0
   -0.7500    1.2990    0.0000 C   0  0  0  0  0  0  0  0  0  0  0  0
   -1.5000    0.0000    0.0000 C   0  0  0  0  0  0  0  0  0  0  0  0
   -0.7500   -1.2990    0.0000 C   0  0  0  0  0  0  0  0  0  0  0  0
   -3.7548   -2.1855    0.0000 N   0  0  0  0  0  0  0  0  0  0  0  0
   -8.5256    0.3621    0.0000 C   0  0  0  0  0  0  0  0  0  0  0  0
   -9.6403    1.3658    0.0000 C   0  0  0  0  0  0  0  0  0  0  0  0
  1  2  1  0
  2  3  2  0
  3  4  1  0
  4  5  2  0
  5  6  1  0
  6  7  1  0
  7  8  1  0
  8  9  2  0
  9 10  1  0
 10 11  2  0
 11 12  1  0
 12 13  1  0
 13 14  1  0
 14 15  2  0
 15 16  1  0
 16 17  1  0
 17 18  2  0
 18 19  1  0
 19 20  2  0
 20 21  1  0
 12 22  2  0
  5 23  1  0
 23 24  2  0
 24  2  1  0
 22  8  1  0
 21 13  2  0
 21 16  1  0
M  END
>  <Compound_ID>  (532) 
CHEMBL513330

>  <Molecule Name>  (532) 
GW781673X

>  <Molecular Weight>  (532) 
336.79

>  <AlogP>  (532) 
3.45

>  <Smiles>  (532) 
Clc1ccc(CNc2nccc(-c3cnn4ncccc34)n2)cc1

>  <Standard Type>  (532) 
Inhibition

>  <Standard Relation>  (532) 
'='

>  <Standard Units>  (532) 
%

>  <Standard Value>  (532) 
3.1

>  <Assay ChEMBL ID>  (532) 
CHEMBL1962241

>  <Assay Description>  (532) 
GSK_PKIS: ALK mean inhibition at 1 uM [Nanosyn]

>  <BAO Format ID>  (532) 
BAO_0000357

>  <BAO Label>  (532) 
single protein format

>  <Assay Organism>  (532) 
None

>  <Target ChEMBL ID>  (532) 
CHEMBL4247

>  <Target Name>  (532) 
ALK tyrosine kinase receptor

>  <Target Organism>  (532) 
Homo sapiens

>  <Target Type>  (532) 
SINGLE PROTEIN

>  <Document ChEMBL ID>  (532) 
CHEMBL1961873

>  <Source Description>  (532) 
GSK Published Kinase Inhibitor Set

>  <Document Journal>  (532) 
nan

>  <Document Year>  (532) 
nan

>  <Active>  (532) 
0.0

>  <bits>  (532) 
<rdkit.DataStructs.cDataStructs.ExplicitBitVect object at 0x000002422F1E05F0>

>  <Group>  (532) 
G2

$$$$

     RDKit          2D

 32 35  0  0  0  0  0  0  0  0999 V2000
    8.2500  -11.6913    0.0000 C   0  0  0  0  0  0  0  0  0  0  0  0
    6.7500  -11.6913    0.0000 C   0  0  0  0  0  0  0  0  0  0  0  0
    6.0000  -10.3923    0.0000 S   0  0  0  0  0  0  0  0  0  0  0  0
    7.2990   -9.6423    0.0000 O   0  0  0  0  0  0  0  0  0  0  0  0
    4.7010  -11.1423    0.0000 O   0  0  0  0  0  0  0  0  0  0  0  0
    5.2500   -9.0933    0.0000 C   0  0  0  0  0  0  0  0  0  0  0  0
    3.7500   -9.0933    0.0000 C   0  0  0  0  0  0  0  0  0  0  0  0
    3.0000   -7.7942    0.0000 C   0  0  0  0  0  0  0  0  0  0  0  0
    3.7500   -6.4952    0.0000 C   0  0  0  0  0  0  0  0  0  0  0  0
    3.0000   -5.1962    0.0000 O   0  0  0  0  0  0  0  0  0  0  0  0
    1.5000   -5.1962    0.0000 C   0  0  0  0  0  0  0  0  0  0  0  0
    5.2500   -6.4952    0.0000 C   0  0  0  0  0  0  0  0  0  0  0  0
    6.0000   -5.1962    0.0000 N   0  0  0  0  0  0  0  0  0  0  0  0
    5.2500   -3.8971    0.0000 C   0  0  0  0  0  0  0  0  0  0  0  0
    6.0000   -2.5981    0.0000 N   0  0  0  0  0  0  0  0  0  0  0  0
    5.2500   -1.2990    0.0000 C   0  0  0  0  0  0  0  0  0  0  0  0
    3.7500   -1.2990    0.0000 C   0  0  0  0  0  0  0  0  0  0  0  0
    3.0000   -2.5981    0.0000 C   0  0  0  0  0  0  0  0  0  0  0  0
    1.5000   -2.5981    0.0000 N   0  0  0  0  0  0  0  0  0  0  0  0
    0.7500   -3.8971    0.0000 C   0  0  0  0  0  0  0  0  0  0  0  0
    0.7500   -1.2990    0.0000 C   0  0  0  0  0  0  0  0  0  0  0  0
    1.5000    0.0000    0.0000 C   0  0  0  0  0  0  0  0  0  0  0  0
    0.7500    1.2990    0.0000 C   0  0  0  0  0  0  0  0  0  0  0  0
   -0.7500    1.2990    0.0000 C   0  0  0  0  0  0  0  0  0  0  0  0
   -1.7537    2.4138    0.0000 C   0  0  0  0  0  0  0  0  0  0  0  0
   -1.4418    3.8810    0.0000 C   0  0  0  0  0  0  0  0  0  0  0  0
   -3.1240    1.8037    0.0000 N   0  0  0  0  0  0  0  0  0  0  0  0
   -2.9672    0.3119    0.0000 N   0  0  0  0  0  0  0  0  0  0  0  0
   -1.5000    0.0000    0.0000 C   0  0  0  0  0  0  0  0  0  0  0  0
   -0.7500   -1.2990    0.0000 C   0  0  0  0  0  0  0  0  0  0  0  0
    3.7500   -3.8971    0.0000 N   0  0  0  0  0  0  0  0  0  0  0  0
    6.0000   -7.7942    0.0000 C   0  0  0  0  0  0  0  0  0  0  0  0
  1  2  1  0
  2  3  1  0
  3  4  2  0
  3  5  2  0
  3  6  1  0
  6  7  2  0
  7  8  1  0
  8  9  2  0
  9 10  1  0
 10 11  1  0
  9 12  1  0
 12 13  1  0
 13 14  1  0
 14 15  2  0
 15 16  1  0
 16 17  2  0
 17 18  1  0
 18 19  1  0
 19 20  1  0
 19 21  1  0
 21 22  2  0
 22 23  1  0
 23 24  2  0
 24 25  1  0
 25 26  1  0
 25 27  2  0
 27 28  1  0
 28 29  1  0
 29 30  2  0
 18 31  2  0
 12 32  2  0
 32  6  1  0
 31 14  1  0
 30 21  1  0
 29 24  1  0
M  END
>  <Compound_ID>  (533) 
CHEMBL1909358

>  <Molecule Name>  (533) 
GW654652C

>  <Molecular Weight>  (533) 
489.0

>  <AlogP>  (533) 
3.98

>  <Smiles>  (533) 
CCS(=O)(=O)c1ccc(OC)c(Nc2nccc(N(C)c3ccc4c(C)n[nH]c4c3)n2)c1

>  <Standard Type>  (533) 
Inhibition

>  <Standard Relation>  (533) 
'='

>  <Standard Units>  (533) 
%

>  <Standard Value>  (533) 
4.29

>  <Assay ChEMBL ID>  (533) 
CHEMBL1962240

>  <Assay Description>  (533) 
GSK_PKIS: ALK mean inhibition at 0.1 uM [Nanosyn]

>  <BAO Format ID>  (533) 
BAO_0000357

>  <BAO Label>  (533) 
single protein format

>  <Assay Organism>  (533) 
None

>  <Target ChEMBL ID>  (533) 
CHEMBL4247

>  <Target Name>  (533) 
ALK tyrosine kinase receptor

>  <Target Organism>  (533) 
Homo sapiens

>  <Target Type>  (533) 
SINGLE PROTEIN

>  <Document ChEMBL ID>  (533) 
CHEMBL1961873

>  <Source Description>  (533) 
GSK Published Kinase Inhibitor Set

>  <Document Journal>  (533) 
nan

>  <Document Year>  (533) 
nan

>  <Active>  (533) 
0.0

>  <bits>  (533) 
<rdkit.DataStructs.cDataStructs.ExplicitBitVect object at 0x000002422F18B140>

>  <Group>  (533) 
G2

$$$$

     RDKit          2D

 42 46  0  0  0  0  0  0  0  0999 V2000
   -2.5981  -14.1073    0.0000 C   0  0  0  0  0  0  0  0  0  0  0  0
   -2.5981  -12.6073    0.0000 N   0  0  0  0  0  0  0  0  0  0  0  0
   -3.8971  -11.8573    0.0000 C   0  0  0  0  0  0  0  0  0  0  0  0
   -3.8971  -10.3573    0.0000 C   0  0  0  0  0  0  0  0  0  0  0  0
   -2.5981   -9.6073    0.0000 N   0  0  0  0  0  0  0  0  0  0  0  0
   -2.5981   -8.1073    0.0000 C   0  0  0  0  0  0  0  0  0  0  0  0
   -1.2990   -7.3573    0.0000 C   0  0  0  0  0  0  0  0  0  0  0  0
   -1.2990   -5.8573    0.0000 C   0  0  0  0  0  0  0  0  0  0  0  0
   -0.0000   -5.1073    0.0000 N   0  0  0  0  0  0  0  0  0  0  0  0
   -0.0000   -3.6073    0.0000 C   0  0  0  0  0  0  0  0  0  0  0  0
    1.2135   -2.7256    0.0000 N   0  0  0  0  0  0  0  0  0  0  0  0
    0.7500   -1.2990    0.0000 C   0  0  0  0  0  0  0  0  0  0  0  0
    1.5000    0.0000    0.0000 C   0  0  0  0  0  0  0  0  0  0  0  0
    0.7500    1.2990    0.0000 C   0  0  0  0  0  0  0  0  0  0  0  0
   -0.7500    1.2990    0.0000 C   0  0  0  0  0  0  0  0  0  0  0  0
   -1.5000    2.5981    0.0000 O   0  0  0  0  0  0  0  0  0  0  0  0
   -0.7500    3.8971    0.0000 C   0  0  0  0  0  0  0  0  0  0  0  0
    0.7500    3.8971    0.0000 C   0  0  0  0  0  0  0  0  0  0  0  0
    1.5000    5.1962    0.0000 C   0  0  0  0  0  0  0  0  0  0  0  0
    0.7500    6.4952    0.0000 C   0  0  0  0  0  0  0  0  0  0  0  0
    1.5000    7.7942    0.0000 N   0  0  0  0  0  0  0  0  0  0  0  0
    3.0000    7.7942    0.0000 C   0  0  0  0  0  0  0  0  0  0  0  0
    3.7500    6.4952    0.0000 O   0  0  0  0  0  0  0  0  0  0  0  0
    3.7500    9.0933    0.0000 N   0  0  0  0  0  0  0  0  0  0  0  0
    5.2500    9.0933    0.0000 C   0  0  0  0  0  0  0  0  0  0  0  0
    6.0000    7.7942    0.0000 C   0  0  0  0  0  0  0  0  0  0  0  0
    7.5000    7.7942    0.0000 C   0  0  0  0  0  0  0  0  0  0  0  0
    8.2500    6.4952    0.0000 C   0  0  0  0  0  0  0  0  0  0  0  0
    9.0000    5.1962    0.0000 F   0  0  0  0  0  0  0  0  0  0  0  0
    6.9510    5.7452    0.0000 F   0  0  0  0  0  0  0  0  0  0  0  0
    9.5490    7.2452    0.0000 F   0  0  0  0  0  0  0  0  0  0  0  0
    8.2500    9.0933    0.0000 C   0  0  0  0  0  0  0  0  0  0  0  0
    7.5000   10.3923    0.0000 C   0  0  0  0  0  0  0  0  0  0  0  0
    6.0000   10.3923    0.0000 C   0  0  0  0  0  0  0  0  0  0  0  0
    5.2500   11.6913    0.0000 F   0  0  0  0  0  0  0  0  0  0  0  0
   -0.7500    6.4952    0.0000 C   0  0  0  0  0  0  0  0  0  0  0  0
   -1.5000    5.1962    0.0000 C   0  0  0  0  0  0  0  0  0  0  0  0
   -1.5000    0.0000    0.0000 C   0  0  0  0  0  0  0  0  0  0  0  0
   -0.7500   -1.2990    0.0000 C   0  0  0  0  0  0  0  0  0  0  0  0
   -1.2135   -2.7256    0.0000 N   0  0  0  0  0  0  0  0  0  0  0  0
   -1.2990  -10.3573    0.0000 C   0  0  0  0  0  0  0  0  0  0  0  0
   -1.2990  -11.8573    0.0000 C   0  0  0  0  0  0  0  0  0  0  0  0
  1  2  1  0
  2  3  1  0
  3  4  1  0
  4  5  1  0
  5  6  1  0
  6  7  1  0
  7  8  1  0
  8  9  1  0
  9 10  1  0
 10 11  2  0
 11 12  1  0
 12 13  2  0
 13 14  1  0
 14 15  2  0
 15 16  1  0
 16 17  1  0
 17 18  2  0
 18 19  1  0
 19 20  2  0
 20 21  1  0
 21 22  1  0
 22 23  2  0
 22 24  1  0
 24 25  1  0
 25 26  2  0
 26 27  1  0
 27 28  1  0
 28 29  1  0
 28 30  1  0
 28 31  1  0
 27 32  2  0
 32 33  1  0
 33 34  2  0
 34 35  1  0
 20 36  1  0
 36 37  2  0
 15 38  1  0
 38 39  2  0
 39 40  1  0
  5 41  1  0
 41 42  1  0
 42  2  1  0
 40 10  1  0
 39 12  1  0
 37 17  1  0
 34 25  1  0
M  END
>  <Compound_ID>  (534) 
CHEMBL1909372

>  <Molecule Name>  (534) 
GW700494A

>  <Molecular Weight>  (534) 
622.07

>  <AlogP>  (534) 
6.21

>  <Smiles>  (534) 
CN1CCN(CCCNc2nc3ccc(Oc4ccc(NC(=O)Nc5cc(C(F)(F)F)ccc5F)cc4)cc3[nH]2)CC1

>  <Standard Type>  (534) 
Inhibition

>  <Standard Relation>  (534) 
'='

>  <Standard Units>  (534) 
%

>  <Standard Value>  (534) 
-3.93

>  <Assay ChEMBL ID>  (534) 
CHEMBL1962240

>  <Assay Description>  (534) 
GSK_PKIS: ALK mean inhibition at 0.1 uM [Nanosyn]

>  <BAO Format ID>  (534) 
BAO_0000357

>  <BAO Label>  (534) 
single protein format

>  <Assay Organism>  (534) 
None

>  <Target ChEMBL ID>  (534) 
CHEMBL4247

>  <Target Name>  (534) 
ALK tyrosine kinase receptor

>  <Target Organism>  (534) 
Homo sapiens

>  <Target Type>  (534) 
SINGLE PROTEIN

>  <Document ChEMBL ID>  (534) 
CHEMBL1961873

>  <Source Description>  (534) 
GSK Published Kinase Inhibitor Set

>  <Document Journal>  (534) 
nan

>  <Document Year>  (534) 
nan

>  <Active>  (534) 
0.0

>  <bits>  (534) 
<rdkit.DataStructs.cDataStructs.ExplicitBitVect object at 0x000002422F1A8580>

>  <Group>  (534) 
G2

$$$$

     RDKit          2D

 23 26  0  0  0  0  0  0  0  0999 V2000
   -8.0346   -3.5760    0.0000 N   0  0  0  0  0  0  0  0  0  0  0  0
   -6.9199   -4.5797    0.0000 C   0  0  0  0  0  0  0  0  0  0  0  0
   -5.4933   -4.1162    0.0000 C   0  0  0  0  0  0  0  0  0  0  0  0
   -5.1814   -2.6490    0.0000 C   0  0  0  0  0  0  0  0  0  0  0  0
   -3.7548   -2.1855    0.0000 C   0  0  0  0  0  0  0  0  0  0  0  0
   -2.6401   -3.1891    0.0000 C   0  0  0  0  0  0  0  0  0  0  0  0
   -1.2135   -2.7256    0.0000 N   0  0  0  0  0  0  0  0  0  0  0  0
   -0.0000   -3.6073    0.0000 C   0  0  0  0  0  0  0  0  0  0  0  0
   -0.0000   -5.1073    0.0000 C   0  0  0  0  0  0  0  0  0  0  0  0
    1.2135   -5.9890    0.0000 N   0  0  0  0  0  0  0  0  0  0  0  0
    0.7500   -7.4156    0.0000 O   0  0  0  0  0  0  0  0  0  0  0  0
   -0.7500   -7.4156    0.0000 N   0  0  0  0  0  0  0  0  0  0  0  0
   -1.2135   -5.9890    0.0000 C   0  0  0  0  0  0  0  0  0  0  0  0
   -2.6401   -5.5255    0.0000 N   0  0  0  0  0  0  0  0  0  0  0  0
    1.2135   -2.7256    0.0000 N   0  0  0  0  0  0  0  0  0  0  0  0
    0.7500   -1.2990    0.0000 C   0  0  0  0  0  0  0  0  0  0  0  0
    1.5000    0.0000    0.0000 C   0  0  0  0  0  0  0  0  0  0  0  0
    0.7500    1.2990    0.0000 N   0  0  0  0  0  0  0  0  0  0  0  0
   -0.7500    1.2990    0.0000 C   0  0  0  0  0  0  0  0  0  0  0  0
   -1.5000    0.0000    0.0000 C   0  0  0  0  0  0  0  0  0  0  0  0
   -0.7500   -1.2990    0.0000 C   0  0  0  0  0  0  0  0  0  0  0  0
   -2.9520   -4.6564    0.0000 C   0  0  0  0  0  0  0  0  0  0  0  0
   -4.3786   -5.1199    0.0000 C   0  0  0  0  0  0  0  0  0  0  0  0
  1  2  1  0
  2  3  1  0
  3  4  2  0
  4  5  1  0
  5  6  2  0
  6  7  1  0
  7  8  1  0
  8  9  1  0
  9 10  2  0
 10 11  1  0
 11 12  1  0
 12 13  2  0
 13 14  1  0
  8 15  2  0
 15 16  1  0
 16 17  2  0
 17 18  1  0
 18 19  2  0
 19 20  1  0
 20 21  2  0
  6 22  1  0
 22 23  2  0
 23  3  1  0
 21  7  1  0
 13  9  1  0
 21 16  1  0
M  END
>  <Compound_ID>  (535) 
CHEMBL188268

>  <Molecule Name>  (535) 
nan

>  <Molecular Weight>  (535) 
307.32

>  <AlogP>  (535) 
1.51

>  <Smiles>  (535) 
NCc1ccc(-n2c(-c3nonc3N)nc3cnccc32)cc1

>  <Standard Type>  (535) 
Inhibition

>  <Standard Relation>  (535) 
'='

>  <Standard Units>  (535) 
%

>  <Standard Value>  (535) 
17.33

>  <Assay ChEMBL ID>  (535) 
CHEMBL1962241

>  <Assay Description>  (535) 
GSK_PKIS: ALK mean inhibition at 1 uM [Nanosyn]

>  <BAO Format ID>  (535) 
BAO_0000357

>  <BAO Label>  (535) 
single protein format

>  <Assay Organism>  (535) 
None

>  <Target ChEMBL ID>  (535) 
CHEMBL4247

>  <Target Name>  (535) 
ALK tyrosine kinase receptor

>  <Target Organism>  (535) 
Homo sapiens

>  <Target Type>  (535) 
SINGLE PROTEIN

>  <Document ChEMBL ID>  (535) 
CHEMBL1961873

>  <Source Description>  (535) 
GSK Published Kinase Inhibitor Set

>  <Document Journal>  (535) 
nan

>  <Document Year>  (535) 
nan

>  <Active>  (535) 
0.0

>  <bits>  (535) 
<rdkit.DataStructs.cDataStructs.ExplicitBitVect object at 0x000002422F1A9230>

>  <Group>  (535) 
G2

$$$$

     RDKit          2D

 27 29  0  0  0  0  0  0  0  0999 V2000
    5.2500    1.2990    0.0000 C   0  0  0  0  0  0  0  0  0  0  0  0
    4.5000    0.0000    0.0000 C   0  0  0  0  0  0  0  0  0  0  0  0
    3.0000    0.0000    0.0000 S   0  0  0  0  0  0  0  0  0  0  0  0
    3.0000    1.5000    0.0000 O   0  0  0  0  0  0  0  0  0  0  0  0
    3.0000   -1.5000    0.0000 O   0  0  0  0  0  0  0  0  0  0  0  0
    1.5000    0.0000    0.0000 C   0  0  0  0  0  0  0  0  0  0  0  0
    0.7500   -1.2990    0.0000 C   0  0  0  0  0  0  0  0  0  0  0  0
   -0.7500   -1.2990    0.0000 C   0  0  0  0  0  0  0  0  0  0  0  0
   -1.5000    0.0000    0.0000 C   0  0  0  0  0  0  0  0  0  0  0  0
   -3.0000    0.0000    0.0000 O   0  0  0  0  0  0  0  0  0  0  0  0
   -3.7500   -1.2990    0.0000 C   0  0  0  0  0  0  0  0  0  0  0  0
   -0.7500    1.2990    0.0000 C   0  0  0  0  0  0  0  0  0  0  0  0
   -1.5000    2.5981    0.0000 N   0  0  0  0  0  0  0  0  0  0  0  0
   -0.7500    3.8971    0.0000 C   0  0  0  0  0  0  0  0  0  0  0  0
   -1.3601    5.2674    0.0000 N   0  0  0  0  0  0  0  0  0  0  0  0
   -0.2454    6.2711    0.0000 C   0  0  0  0  0  0  0  0  0  0  0  0
    1.0537    5.5211    0.0000 C   0  0  0  0  0  0  0  0  0  0  0  0
    2.4240    6.1312    0.0000 C   0  0  0  0  0  0  0  0  0  0  0  0
    3.6375    5.2496    0.0000 C   0  0  0  0  0  0  0  0  0  0  0  0
    5.0078    5.8597    0.0000 C   0  0  0  0  0  0  0  0  0  0  0  0
    5.1646    7.3514    0.0000 C   0  0  0  0  0  0  0  0  0  0  0  0
    3.9511    8.2331    0.0000 C   0  0  0  0  0  0  0  0  0  0  0  0
    4.1079    9.7249    0.0000 O   0  0  0  0  0  0  0  0  0  0  0  0
    5.4782   10.3350    0.0000 C   0  0  0  0  0  0  0  0  0  0  0  0
    2.5808    7.6230    0.0000 C   0  0  0  0  0  0  0  0  0  0  0  0
    0.7418    4.0539    0.0000 O   0  0  0  0  0  0  0  0  0  0  0  0
    0.7500    1.2990    0.0000 C   0  0  0  0  0  0  0  0  0  0  0  0
  1  2  1  0
  2  3  1  0
  3  4  2  0
  3  5  2  0
  3  6  1  0
  6  7  2  0
  7  8  1  0
  8  9  2  0
  9 10  1  0
 10 11  1  0
  9 12  1  0
 12 13  1  0
 13 14  1  0
 14 15  2  0
 15 16  1  0
 16 17  2  0
 17 18  1  0
 18 19  2  0
 19 20  1  0
 20 21  2  0
 21 22  1  0
 22 23  1  0
 23 24  1  0
 22 25  2  0
 17 26  1  0
 12 27  2  0
 27  6  1  0
 26 14  1  0
 25 18  1  0
M  END
>  <Compound_ID>  (536) 
CHEMBL179311

>  <Molecule Name>  (536) 
GW580509X

>  <Molecular Weight>  (536) 
388.45

>  <AlogP>  (536) 
3.9

>  <Smiles>  (536) 
CCS(=O)(=O)c1ccc(OC)c(Nc2ncc(-c3cccc(OC)c3)o2)c1

>  <Standard Type>  (536) 
Inhibition

>  <Standard Relation>  (536) 
'='

>  <Standard Units>  (536) 
%

>  <Standard Value>  (536) 
2.9

>  <Assay ChEMBL ID>  (536) 
CHEMBL1962240

>  <Assay Description>  (536) 
GSK_PKIS: ALK mean inhibition at 0.1 uM [Nanosyn]

>  <BAO Format ID>  (536) 
BAO_0000357

>  <BAO Label>  (536) 
single protein format

>  <Assay Organism>  (536) 
None

>  <Target ChEMBL ID>  (536) 
CHEMBL4247

>  <Target Name>  (536) 
ALK tyrosine kinase receptor

>  <Target Organism>  (536) 
Homo sapiens

>  <Target Type>  (536) 
SINGLE PROTEIN

>  <Document ChEMBL ID>  (536) 
CHEMBL1961873

>  <Source Description>  (536) 
GSK Published Kinase Inhibitor Set

>  <Document Journal>  (536) 
nan

>  <Document Year>  (536) 
nan

>  <Active>  (536) 
0.0

>  <bits>  (536) 
<rdkit.DataStructs.cDataStructs.ExplicitBitVect object at 0x000002422F1A8E40>

>  <Group>  (536) 
G2

$$$$

     RDKit          2D

 24 26  0  0  0  0  0  0  0  0999 V2000
    5.2500   -1.2990    0.0000 C   0  0  0  0  0  0  0  0  0  0  0  0
    3.7500   -1.2990    0.0000 O   0  0  0  0  0  0  0  0  0  0  0  0
    3.0000    0.0000    0.0000 C   0  0  0  0  0  0  0  0  0  0  0  0
    3.7500    1.2990    0.0000 O   0  0  0  0  0  0  0  0  0  0  0  0
    1.5000    0.0000    0.0000 C   0  0  0  0  0  0  0  0  0  0  0  0
    0.7500   -1.2990    0.0000 C   0  0  0  0  0  0  0  0  0  0  0  0
   -0.7500   -1.2990    0.0000 C   0  0  0  0  0  0  0  0  0  0  0  0
   -1.5000    0.0000    0.0000 C   0  0  0  0  0  0  0  0  0  0  0  0
   -0.7500    1.2990    0.0000 C   0  0  0  0  0  0  0  0  0  0  0  0
    0.7500    1.2990    0.0000 C   0  0  0  0  0  0  0  0  0  0  0  0
   -1.7537    2.4138    0.0000 C   0  0  0  0  0  0  0  0  0  0  0  0
   -1.4418    3.8810    0.0000 C   0  0  0  0  0  0  0  0  0  0  0  0
   -2.5565    4.8847    0.0000 C   0  0  0  0  0  0  0  0  0  0  0  0
   -2.2447    6.3519    0.0000 C   0  0  0  0  0  0  0  0  0  0  0  0
   -3.3594    7.3556    0.0000 C   0  0  0  0  0  0  0  0  0  0  0  0
   -3.0475    8.8228    0.0000 Br  0  0  0  0  0  0  0  0  0  0  0  0
   -4.7860    6.8921    0.0000 C   0  0  0  0  0  0  0  0  0  0  0  0
   -5.9007    7.8958    0.0000 O   0  0  0  0  0  0  0  0  0  0  0  0
   -5.0978    5.4248    0.0000 C   0  0  0  0  0  0  0  0  0  0  0  0
   -6.5244    4.9613    0.0000 Br  0  0  0  0  0  0  0  0  0  0  0  0
   -3.9831    4.4211    0.0000 C   0  0  0  0  0  0  0  0  0  0  0  0
   -3.1240    1.8037    0.0000 C   0  0  0  0  0  0  0  0  0  0  0  0
   -4.4231    2.5537    0.0000 O   0  0  0  0  0  0  0  0  0  0  0  0
   -2.9672    0.3119    0.0000 N   0  0  0  0  0  0  0  0  0  0  0  0
  1  2  1  0
  2  3  1  0
  3  4  2  0
  3  5  1  0
  5  6  2  0
  6  7  1  0
  7  8  2  0
  8  9  1  0
  9 10  2  0
  9 11  1  0
 11 12  2  3
 12 13  1  0
 13 14  2  0
 14 15  1  0
 15 16  1  0
 15 17  2  0
 17 18  1  0
 17 19  1  0
 19 20  1  0
 19 21  2  0
 11 22  1  0
 22 23  2  0
 22 24  1  0
 10  5  1  0
 21 13  1  0
 24  8  1  0
M  END
>  <Compound_ID>  (537) 
CHEMBL1794052

>  <Molecule Name>  (537) 
GW405841X

>  <Molecular Weight>  (537) 
453.09

>  <AlogP>  (537) 
4.2

>  <Smiles>  (537) 
COC(=O)c1ccc2c(c1)C(=Cc1cc(Br)c(O)c(Br)c1)C(=O)N2

>  <Standard Type>  (537) 
Inhibition

>  <Standard Relation>  (537) 
'='

>  <Standard Units>  (537) 
%

>  <Standard Value>  (537) 
15.04

>  <Assay ChEMBL ID>  (537) 
CHEMBL1962241

>  <Assay Description>  (537) 
GSK_PKIS: ALK mean inhibition at 1 uM [Nanosyn]

>  <BAO Format ID>  (537) 
BAO_0000357

>  <BAO Label>  (537) 
single protein format

>  <Assay Organism>  (537) 
None

>  <Target ChEMBL ID>  (537) 
CHEMBL4247

>  <Target Name>  (537) 
ALK tyrosine kinase receptor

>  <Target Organism>  (537) 
Homo sapiens

>  <Target Type>  (537) 
SINGLE PROTEIN

>  <Document ChEMBL ID>  (537) 
CHEMBL1961873

>  <Source Description>  (537) 
GSK Published Kinase Inhibitor Set

>  <Document Journal>  (537) 
nan

>  <Document Year>  (537) 
nan

>  <Active>  (537) 
0.0

>  <bits>  (537) 
<rdkit.DataStructs.cDataStructs.ExplicitBitVect object at 0x000002422F1A82E0>

>  <Group>  (537) 
G2

$$$$

     RDKit          2D

 25 27  0  0  0  0  0  0  0  0999 V2000
   -0.5490   -3.1471    0.0000 O   0  0  0  0  0  0  0  0  0  0  0  0
    0.7500   -3.8971    0.0000 S   0  0  0  0  0  0  0  0  0  0  0  0
    2.0490   -4.6471    0.0000 O   0  0  0  0  0  0  0  0  0  0  0  0
    1.5000   -2.5981    0.0000 N   0  0  0  0  0  0  0  0  0  0  0  0
    0.7500   -1.2990    0.0000 C   0  0  0  0  0  0  0  0  0  0  0  0
    1.5000    0.0000    0.0000 C   0  0  0  0  0  0  0  0  0  0  0  0
    0.7500    1.2990    0.0000 C   0  0  0  0  0  0  0  0  0  0  0  0
   -0.7500    1.2990    0.0000 C   0  0  0  0  0  0  0  0  0  0  0  0
   -1.5000    2.5981    0.0000 O   0  0  0  0  0  0  0  0  0  0  0  0
   -1.5000    0.0000    0.0000 C   0  0  0  0  0  0  0  0  0  0  0  0
   -3.0000    0.0000    0.0000 S   0  0  0  0  0  0  0  0  0  0  0  0
   -3.7500   -1.2990    0.0000 C   0  0  0  0  0  0  0  0  0  0  0  0
   -3.1399   -2.6694    0.0000 N   0  0  0  0  0  0  0  0  0  0  0  0
   -4.2546   -3.6731    0.0000 C   0  0  0  0  0  0  0  0  0  0  0  0
   -5.5537   -2.9231    0.0000 N   0  0  0  0  0  0  0  0  0  0  0  0
   -5.2418   -1.4558    0.0000 N   0  0  0  0  0  0  0  0  0  0  0  0
   -0.7500   -1.2990    0.0000 C   0  0  0  0  0  0  0  0  0  0  0  0
   -0.0000   -5.1962    0.0000 C   0  0  0  0  0  0  0  0  0  0  0  0
   -1.5000   -5.1962    0.0000 C   0  0  0  0  0  0  0  0  0  0  0  0
   -2.2500   -3.8971    0.0000 Cl  0  0  0  0  0  0  0  0  0  0  0  0
   -2.2500   -6.4952    0.0000 C   0  0  0  0  0  0  0  0  0  0  0  0
   -1.5000   -7.7942    0.0000 C   0  0  0  0  0  0  0  0  0  0  0  0
   -0.0000   -7.7942    0.0000 C   0  0  0  0  0  0  0  0  0  0  0  0
    0.7500   -6.4952    0.0000 C   0  0  0  0  0  0  0  0  0  0  0  0
    2.2500   -6.4952    0.0000 Cl  0  0  0  0  0  0  0  0  0  0  0  0
  1  2  2  0
  2  3  2  0
  2  4  1  0
  4  5  1  0
  5  6  2  0
  6  7  1  0
  7  8  2  0
  8  9  1  0
  8 10  1  0
 10 11  1  0
 11 12  1  0
 12 13  2  0
 13 14  1  0
 14 15  2  0
 15 16  1  0
 10 17  2  0
  2 18  1  0
 18 19  2  0
 19 20  1  0
 19 21  1  0
 21 22  2  0
 22 23  1  0
 23 24  2  0
 24 25  1  0
 17  5  1  0
 24 18  1  0
 16 12  1  0
M  END
>  <Compound_ID>  (538) 
CHEMBL2436725

>  <Molecule Name>  (538) 
nan

>  <Molecular Weight>  (538) 
417.3

>  <AlogP>  (538) 
3.77

>  <Smiles>  (538) 
O=S(=O)(Nc1ccc(O)c(Sc2ncn[nH]2)c1)c1c(Cl)cccc1Cl

>  <Standard Type>  (538) 
Inhibition

>  <Standard Relation>  (538) 
'='

>  <Standard Units>  (538) 
%

>  <Standard Value>  (538) 
10.32

>  <Assay ChEMBL ID>  (538) 
CHEMBL2438115

>  <Assay Description>  (538) 
Inhibition of ALK (unknown origin) at 10 uM after 30 mins by fluorescence assay relative to control

>  <BAO Format ID>  (538) 
BAO_0000357

>  <BAO Label>  (538) 
single protein format

>  <Assay Organism>  (538) 
Homo sapiens

>  <Target ChEMBL ID>  (538) 
CHEMBL4247

>  <Target Name>  (538) 
ALK tyrosine kinase receptor

>  <Target Organism>  (538) 
Homo sapiens

>  <Target Type>  (538) 
SINGLE PROTEIN

>  <Document ChEMBL ID>  (538) 
CHEMBL2434840

>  <Source Description>  (538) 
Scientific Literature

>  <Document Journal>  (538) 
Eur J Med Chem

>  <Document Year>  (538) 
2013.0

>  <Active>  (538) 
0.0

>  <bits>  (538) 
<rdkit.DataStructs.cDataStructs.ExplicitBitVect object at 0x000002422F1A8190>

>  <Group>  (538) 
G2

$$$$

     RDKit          2D

 35 39  0  0  0  0  0  0  0  0999 V2000
   -1.2990  -10.3573    0.0000 C   0  0  0  0  0  0  0  0  0  0  0  0
    0.0000   -9.6073    0.0000 O   0  0  0  0  0  0  0  0  0  0  0  0
    0.0000   -8.1073    0.0000 C   0  0  0  0  0  0  0  0  0  0  0  0
   -1.2990   -7.3573    0.0000 C   0  0  0  0  0  0  0  0  0  0  0  0
   -1.2990   -5.8573    0.0000 C   0  0  0  0  0  0  0  0  0  0  0  0
   -0.0000   -5.1073    0.0000 C   0  0  0  0  0  0  0  0  0  0  0  0
   -0.0000   -3.6073    0.0000 C   0  0  0  0  0  0  0  0  0  0  0  0
    1.2135   -2.7256    0.0000 N   0  0  0  0  0  0  0  0  0  0  0  0
    0.7500   -1.2990    0.0000 N   0  0  0  0  0  0  0  0  0  0  0  0
    1.5000    0.0000    0.0000 N   0  0  0  0  0  0  0  0  0  0  0  0
    0.7500    1.2990    0.0000 C   0  0  0  0  0  0  0  0  0  0  0  0
   -0.7500    1.2990    0.0000 C   0  0  0  0  0  0  0  0  0  0  0  0
   -1.5000    0.0000    0.0000 C   0  0  0  0  0  0  0  0  0  0  0  0
   -0.7500   -1.2990    0.0000 C   0  0  0  0  0  0  0  0  0  0  0  0
   -1.2135   -2.7256    0.0000 C   0  0  0  0  0  0  0  0  0  0  0  0
   -2.6401   -3.1891    0.0000 C   0  0  0  0  0  0  0  0  0  0  0  0
   -3.7548   -2.1855    0.0000 C   0  0  0  0  0  0  0  0  0  0  0  0
   -5.1814   -2.6490    0.0000 C   0  0  0  0  0  0  0  0  0  0  0  0
   -5.4933   -4.1162    0.0000 N   0  0  0  0  0  0  0  0  0  0  0  0
   -4.3786   -5.1199    0.0000 C   0  0  0  0  0  0  0  0  0  0  0  0
   -4.6904   -6.5871    0.0000 N   0  0  0  0  0  0  0  0  0  0  0  0
   -6.1170   -7.0506    0.0000 C   0  0  0  0  0  0  0  0  0  0  0  0
   -7.2317   -6.0469    0.0000 C   0  0  0  0  0  0  0  0  0  0  0  0
   -8.6583   -6.5105    0.0000 C   0  0  0  0  0  0  0  0  0  0  0  0
   -8.9702   -7.9777    0.0000 C   0  0  0  0  0  0  0  0  0  0  0  0
  -10.3968   -8.4412    0.0000 Cl  0  0  0  0  0  0  0  0  0  0  0  0
   -7.8555   -8.9814    0.0000 C   0  0  0  0  0  0  0  0  0  0  0  0
   -8.1673  -10.4486    0.0000 C   0  0  0  0  0  0  0  0  0  0  0  0
   -8.4792  -11.9158    0.0000 F   0  0  0  0  0  0  0  0  0  0  0  0
   -6.7001  -10.7605    0.0000 F   0  0  0  0  0  0  0  0  0  0  0  0
   -9.6346  -10.1367    0.0000 F   0  0  0  0  0  0  0  0  0  0  0  0
   -6.4289   -8.5179    0.0000 C   0  0  0  0  0  0  0  0  0  0  0  0
   -2.9520   -4.6564    0.0000 N   0  0  0  0  0  0  0  0  0  0  0  0
    1.2990   -5.8573    0.0000 C   0  0  0  0  0  0  0  0  0  0  0  0
    1.2990   -7.3573    0.0000 C   0  0  0  0  0  0  0  0  0  0  0  0
  1  2  1  0
  2  3  1  0
  3  4  2  0
  4  5  1  0
  5  6  2  0
  6  7  1  0
  7  8  2  0
  8  9  1  0
  9 10  1  0
 10 11  2  0
 11 12  1  0
 12 13  2  0
 13 14  1  0
 14 15  2  0
 15 16  1  0
 16 17  2  0
 17 18  1  0
 18 19  2  0
 19 20  1  0
 20 21  1  0
 21 22  1  0
 22 23  2  0
 23 24  1  0
 24 25  2  0
 25 26  1  0
 25 27  1  0
 27 28  1  0
 28 29  1  0
 28 30  1  0
 28 31  1  0
 27 32  2  0
 20 33  2  0
  6 34  1  0
 34 35  2  0
 35  3  1  0
 15  7  1  0
 33 16  1  0
 14  9  1  0
 32 22  1  0
M  END
>  <Compound_ID>  (539) 
CHEMBL188794

>  <Molecule Name>  (539) 
GW829115X

>  <Molecular Weight>  (539) 
496.88

>  <AlogP>  (539) 
6.28

>  <Smiles>  (539) 
COc1ccc(-c2nn3ncccc3c2-c2ccnc(Nc3ccc(Cl)c(C(F)(F)F)c3)n2)cc1

>  <Standard Type>  (539) 
Inhibition

>  <Standard Relation>  (539) 
'='

>  <Standard Units>  (539) 
%

>  <Standard Value>  (539) 
2.05

>  <Assay ChEMBL ID>  (539) 
CHEMBL1962241

>  <Assay Description>  (539) 
GSK_PKIS: ALK mean inhibition at 1 uM [Nanosyn]

>  <BAO Format ID>  (539) 
BAO_0000357

>  <BAO Label>  (539) 
single protein format

>  <Assay Organism>  (539) 
None

>  <Target ChEMBL ID>  (539) 
CHEMBL4247

>  <Target Name>  (539) 
ALK tyrosine kinase receptor

>  <Target Organism>  (539) 
Homo sapiens

>  <Target Type>  (539) 
SINGLE PROTEIN

>  <Document ChEMBL ID>  (539) 
CHEMBL1961873

>  <Source Description>  (539) 
GSK Published Kinase Inhibitor Set

>  <Document Journal>  (539) 
nan

>  <Document Year>  (539) 
nan

>  <Active>  (539) 
0.0

>  <bits>  (539) 
<rdkit.DataStructs.cDataStructs.ExplicitBitVect object at 0x000002422F1A9540>

>  <Group>  (539) 
G2

$$$$

     RDKit          2D

 21 24  0  0  0  0  0  0  0  0999 V2000
   -2.6401   -3.1891    0.0000 C   0  0  0  0  0  0  0  0  0  0  0  0
   -1.2135   -2.7256    0.0000 N   0  0  0  0  0  0  0  0  0  0  0  0
   -0.0000   -3.6073    0.0000 C   0  0  0  0  0  0  0  0  0  0  0  0
    1.2135   -2.7256    0.0000 C   0  0  0  0  0  0  0  0  0  0  0  0
    2.6401   -3.1891    0.0000 C   0  0  0  0  0  0  0  0  0  0  0  0
    2.9520   -4.6564    0.0000 C   0  0  0  0  0  0  0  0  0  0  0  0
    1.9483   -5.7711    0.0000 C   0  0  0  0  0  0  0  0  0  0  0  0
    0.4565   -5.6143    0.0000 O   0  0  0  0  0  0  0  0  0  0  0  0
    2.6983   -7.0701    0.0000 N   0  0  0  0  0  0  0  0  0  0  0  0
    4.1655   -6.7583    0.0000 C   0  0  0  0  0  0  0  0  0  0  0  0
    5.3790   -7.6399    0.0000 C   0  0  0  0  0  0  0  0  0  0  0  0
    6.7493   -7.0298    0.0000 C   0  0  0  0  0  0  0  0  0  0  0  0
    6.9061   -5.5380    0.0000 C   0  0  0  0  0  0  0  0  0  0  0  0
    5.6926   -4.6564    0.0000 N   0  0  0  0  0  0  0  0  0  0  0  0
    4.3223   -5.2665    0.0000 C   0  0  0  0  0  0  0  0  0  0  0  0
    0.7500   -1.2990    0.0000 C   0  0  0  0  0  0  0  0  0  0  0  0
    1.5000    0.0000    0.0000 C   0  0  0  0  0  0  0  0  0  0  0  0
    0.7500    1.2990    0.0000 C   0  0  0  0  0  0  0  0  0  0  0  0
   -0.7500    1.2990    0.0000 C   0  0  0  0  0  0  0  0  0  0  0  0
   -1.5000    0.0000    0.0000 C   0  0  0  0  0  0  0  0  0  0  0  0
   -0.7500   -1.2990    0.0000 C   0  0  0  0  0  0  0  0  0  0  0  0
  1  2  1  0
  2  3  1  0
  3  4  2  0
  4  5  1  0
  5  6  2  3
  6  7  1  0
  7  8  2  0
  7  9  1  0
  9 10  1  0
 10 11  2  0
 11 12  1  0
 12 13  2  0
 13 14  1  0
 14 15  2  0
  4 16  1  0
 16 17  2  0
 17 18  1  0
 18 19  2  0
 19 20  1  0
 20 21  2  0
 21  2  1  0
 15  6  1  0
 21 16  1  0
 15 10  1  0
M  END
>  <Compound_ID>  (540) 
CHEMBL1516890

>  <Molecule Name>  (540) 
GW441756X

>  <Molecular Weight>  (540) 
275.31

>  <AlogP>  (540) 
3.07

>  <Smiles>  (540) 
Cn1cc(C=C2C(=O)Nc3cccnc32)c2ccccc21

>  <Standard Type>  (540) 
Inhibition

>  <Standard Relation>  (540) 
'='

>  <Standard Units>  (540) 
%

>  <Standard Value>  (540) 
9.81

>  <Assay ChEMBL ID>  (540) 
CHEMBL1962241

>  <Assay Description>  (540) 
GSK_PKIS: ALK mean inhibition at 1 uM [Nanosyn]

>  <BAO Format ID>  (540) 
BAO_0000357

>  <BAO Label>  (540) 
single protein format

>  <Assay Organism>  (540) 
None

>  <Target ChEMBL ID>  (540) 
CHEMBL4247

>  <Target Name>  (540) 
ALK tyrosine kinase receptor

>  <Target Organism>  (540) 
Homo sapiens

>  <Target Type>  (540) 
SINGLE PROTEIN

>  <Document ChEMBL ID>  (540) 
CHEMBL1961873

>  <Source Description>  (540) 
GSK Published Kinase Inhibitor Set

>  <Document Journal>  (540) 
nan

>  <Document Year>  (540) 
nan

>  <Active>  (540) 
0.0

>  <bits>  (540) 
<rdkit.DataStructs.cDataStructs.ExplicitBitVect object at 0x000002422F1A89E0>

>  <Group>  (540) 
G2

$$$$

     RDKit          2D

 30 33  0  0  0  0  0  0  0  0999 V2000
    1.8478   -6.4639    0.0000 C   0  0  0  0  0  0  0  0  0  0  0  0
    2.0046   -4.9721    0.0000 C   0  0  0  0  0  0  0  0  0  0  0  0
    3.3037   -4.2221    0.0000 N   0  0  0  0  0  0  0  0  0  0  0  0
    2.9918   -2.7549    0.0000 N   0  0  0  0  0  0  0  0  0  0  0  0
    1.5000   -2.5981    0.0000 C   0  0  0  0  0  0  0  0  0  0  0  0
    0.7500   -1.2990    0.0000 C   0  0  0  0  0  0  0  0  0  0  0  0
    1.5000    0.0000    0.0000 C   0  0  0  0  0  0  0  0  0  0  0  0
    0.7500    1.2990    0.0000 C   0  0  0  0  0  0  0  0  0  0  0  0
   -0.7500    1.2990    0.0000 C   0  0  0  0  0  0  0  0  0  0  0  0
   -1.5000    2.5981    0.0000 C   0  0  0  0  0  0  0  0  0  0  0  0
   -1.5000    0.0000    0.0000 C   0  0  0  0  0  0  0  0  0  0  0  0
   -3.0000    0.0000    0.0000 C   0  0  0  0  0  0  0  0  0  0  0  0
   -3.7500    1.2990    0.0000 C   0  0  0  0  0  0  0  0  0  0  0  0
   -5.2500    1.2990    0.0000 C   0  0  0  0  0  0  0  0  0  0  0  0
   -6.0000    0.0000    0.0000 C   0  0  0  0  0  0  0  0  0  0  0  0
   -7.5000    0.0000    0.0000 C   0  0  0  0  0  0  0  0  0  0  0  0
   -8.2500   -1.2990    0.0000 O   0  0  0  0  0  0  0  0  0  0  0  0
   -8.2500    1.2990    0.0000 N   0  0  0  0  0  0  0  0  0  0  0  0
   -9.7500    1.2990    0.0000 C   0  0  0  0  0  0  0  0  0  0  0  0
  -10.5000    2.5981    0.0000 C   0  0  0  0  0  0  0  0  0  0  0  0
  -12.0000    2.5981    0.0000 C   0  0  0  0  0  0  0  0  0  0  0  0
  -12.7500    1.2990    0.0000 C   0  0  0  0  0  0  0  0  0  0  0  0
  -12.0000    0.0000    0.0000 C   0  0  0  0  0  0  0  0  0  0  0  0
  -12.7500   -1.2990    0.0000 C   0  0  0  0  0  0  0  0  0  0  0  0
  -13.5000   -2.5981    0.0000 N   0  0  0  0  0  0  0  0  0  0  0  0
  -10.5000    0.0000    0.0000 C   0  0  0  0  0  0  0  0  0  0  0  0
   -5.2500   -1.2990    0.0000 C   0  0  0  0  0  0  0  0  0  0  0  0
   -3.7500   -1.2990    0.0000 C   0  0  0  0  0  0  0  0  0  0  0  0
   -0.7500   -1.2990    0.0000 C   0  0  0  0  0  0  0  0  0  0  0  0
    0.8899   -3.9684    0.0000 O   0  0  0  0  0  0  0  0  0  0  0  0
  1  2  1  0
  2  3  2  0
  3  4  1  0
  4  5  2  0
  5  6  1  0
  6  7  2  0
  7  8  1  0
  8  9  2  0
  9 10  1  0
  9 11  1  0
 11 12  1  0
 12 13  2  0
 13 14  1  0
 14 15  2  0
 15 16  1  0
 16 17  2  0
 16 18  1  0
 18 19  1  0
 19 20  2  0
 20 21  1  0
 21 22  2  0
 22 23  1  0
 23 24  1  0
 24 25  3  0
 23 26  2  0
 15 27  1  0
 27 28  2  0
 11 29  2  0
  5 30  1  0
 30  2  1  0
 29  6  1  0
 28 12  1  0
 26 19  1  0
M  END
>  <Compound_ID>  (541) 
CHEMBL270164

>  <Molecule Name>  (541) 
GW607117X

>  <Molecular Weight>  (541) 
394.43

>  <AlogP>  (541) 
5.14

>  <Smiles>  (541) 
Cc1nnc(-c2ccc(C)c(-c3ccc(C(=O)Nc4cccc(C#N)c4)cc3)c2)o1

>  <Standard Type>  (541) 
Inhibition

>  <Standard Relation>  (541) 
'='

>  <Standard Units>  (541) 
%

>  <Standard Value>  (541) 
3.61

>  <Assay ChEMBL ID>  (541) 
CHEMBL1962240

>  <Assay Description>  (541) 
GSK_PKIS: ALK mean inhibition at 0.1 uM [Nanosyn]

>  <BAO Format ID>  (541) 
BAO_0000357

>  <BAO Label>  (541) 
single protein format

>  <Assay Organism>  (541) 
None

>  <Target ChEMBL ID>  (541) 
CHEMBL4247

>  <Target Name>  (541) 
ALK tyrosine kinase receptor

>  <Target Organism>  (541) 
Homo sapiens

>  <Target Type>  (541) 
SINGLE PROTEIN

>  <Document ChEMBL ID>  (541) 
CHEMBL1961873

>  <Source Description>  (541) 
GSK Published Kinase Inhibitor Set

>  <Document Journal>  (541) 
nan

>  <Document Year>  (541) 
nan

>  <Active>  (541) 
0.0

>  <bits>  (541) 
<rdkit.DataStructs.cDataStructs.ExplicitBitVect object at 0x000002422F1A8890>

>  <Group>  (541) 
G2

$$$$

     RDKit          2D

 25 26  0  0  0  0  0  0  0  0999 V2000
    6.0000   -2.5981    0.0000 C   0  0  0  0  0  0  0  0  0  0  0  0
    5.2500   -1.2990    0.0000 N   0  0  0  0  0  0  0  0  0  0  0  0
    3.7500   -1.2990    0.0000 C   0  0  0  0  0  0  0  0  0  0  0  0
    3.0000   -2.5981    0.0000 O   0  0  0  0  0  0  0  0  0  0  0  0
    3.0000    0.0000    0.0000 O   0  0  0  0  0  0  0  0  0  0  0  0
    1.5000    0.0000    0.0000 C   0  0  0  0  0  0  0  0  0  0  0  0
    0.7500   -1.2990    0.0000 C   0  0  0  0  0  0  0  0  0  0  0  0
   -0.7500   -1.2990    0.0000 C   0  0  0  0  0  0  0  0  0  0  0  0
   -1.5000   -2.5981    0.0000 C   0  0  0  0  0  0  0  0  0  0  0  0
   -1.5000    0.0000    0.0000 C   0  0  0  0  0  0  0  0  0  0  0  0
   -3.0000    0.0000    0.0000 C   0  0  0  0  0  0  0  0  0  0  0  0
   -3.7500    1.2990    0.0000 C   0  0  0  0  0  0  0  0  0  0  0  0
   -5.2500    1.2990    0.0000 C   0  0  0  0  0  0  0  0  0  0  0  0
   -6.0000    2.5981    0.0000 C   0  0  0  0  0  0  0  0  0  0  0  0
   -7.5000    2.5981    0.0000 N   0  0  0  0  0  0  0  0  0  0  0  0
   -8.2500    1.2990    0.0000 C   0  0  0  0  0  0  0  0  0  0  0  0
   -7.5000    0.0000    0.0000 C   0  0  0  0  0  0  0  0  0  0  0  0
   -8.2500   -1.2990    0.0000 C   0  0  0  0  0  0  0  0  0  0  0  0
   -7.5000   -2.5981    0.0000 O   0  0  0  0  0  0  0  0  0  0  0  0
   -9.7500   -1.2990    0.0000 N   0  0  0  0  0  0  0  0  0  0  0  0
  -10.5000   -2.5981    0.0000 C   0  0  0  0  0  0  0  0  0  0  0  0
   -6.0000    0.0000    0.0000 C   0  0  0  0  0  0  0  0  0  0  0  0
   -0.7500    1.2990    0.0000 C   0  0  0  0  0  0  0  0  0  0  0  0
   -1.5000    2.5981    0.0000 C   0  0  0  0  0  0  0  0  0  0  0  0
    0.7500    1.2990    0.0000 C   0  0  0  0  0  0  0  0  0  0  0  0
  1  2  1  0
  2  3  1  0
  3  4  2  0
  3  5  1  0
  5  6  1  0
  6  7  2  0
  7  8  1  0
  8  9  1  0
  8 10  2  0
 10 11  1  0
 11 12  2  0
 12 13  1  0
 13 14  2  0
 14 15  1  0
 15 16  2  0
 16 17  1  0
 17 18  1  0
 18 19  2  0
 18 20  1  0
 20 21  1  0
 17 22  2  0
 10 23  1  0
 23 24  1  0
 23 25  2  0
 25  6  1  0
 22 13  1  0
M  END
>  <Compound_ID>  (542) 
CHEMBL218932

>  <Molecule Name>  (542) 
GW432441X

>  <Molecular Weight>  (542) 
339.4

>  <AlogP>  (542) 
2.95

>  <Smiles>  (542) 
CNC(=O)Oc1cc(C)c(/C=C/c2cncc(C(=O)NC)c2)c(C)c1

>  <Standard Type>  (542) 
Inhibition

>  <Standard Relation>  (542) 
'='

>  <Standard Units>  (542) 
%

>  <Standard Value>  (542) 
14.22

>  <Assay ChEMBL ID>  (542) 
CHEMBL1962241

>  <Assay Description>  (542) 
GSK_PKIS: ALK mean inhibition at 1 uM [Nanosyn]

>  <BAO Format ID>  (542) 
BAO_0000357

>  <BAO Label>  (542) 
single protein format

>  <Assay Organism>  (542) 
None

>  <Target ChEMBL ID>  (542) 
CHEMBL4247

>  <Target Name>  (542) 
ALK tyrosine kinase receptor

>  <Target Organism>  (542) 
Homo sapiens

>  <Target Type>  (542) 
SINGLE PROTEIN

>  <Document ChEMBL ID>  (542) 
CHEMBL1961873

>  <Source Description>  (542) 
GSK Published Kinase Inhibitor Set

>  <Document Journal>  (542) 
nan

>  <Document Year>  (542) 
nan

>  <Active>  (542) 
0.0

>  <bits>  (542) 
<rdkit.DataStructs.cDataStructs.ExplicitBitVect object at 0x000002422F1A83C0>

>  <Group>  (542) 
G2

$$$$

     RDKit          2D

 23 25  0  0  0  0  0  0  0  0999 V2000
    3.7500   -1.2990    0.0000 N   0  0  0  0  0  0  0  0  0  0  0  0
    3.0000    0.0000    0.0000 C   0  0  0  0  0  0  0  0  0  0  0  0
    3.7500    1.2990    0.0000 O   0  0  0  0  0  0  0  0  0  0  0  0
    1.5000    0.0000    0.0000 C   0  0  0  0  0  0  0  0  0  0  0  0
    0.7500   -1.2990    0.0000 C   0  0  0  0  0  0  0  0  0  0  0  0
   -0.7500   -1.2990    0.0000 C   0  0  0  0  0  0  0  0  0  0  0  0
   -1.5000   -2.5981    0.0000 C   0  0  0  0  0  0  0  0  0  0  0  0
   -3.0000   -2.5981    0.0000 C   0  0  0  0  0  0  0  0  0  0  0  0
   -3.7500   -3.8971    0.0000 C   0  0  0  0  0  0  0  0  0  0  0  0
   -3.0000   -5.1962    0.0000 C   0  0  0  0  0  0  0  0  0  0  0  0
   -3.7500   -6.4952    0.0000 F   0  0  0  0  0  0  0  0  0  0  0  0
   -1.5000   -5.1962    0.0000 C   0  0  0  0  0  0  0  0  0  0  0  0
   -0.7500   -3.8971    0.0000 C   0  0  0  0  0  0  0  0  0  0  0  0
   -1.5000    0.0000    0.0000 C   0  0  0  0  0  0  0  0  0  0  0  0
   -0.7500    1.2990    0.0000 C   0  0  0  0  0  0  0  0  0  0  0  0
   -1.5000    2.5981    0.0000 C   0  0  0  0  0  0  0  0  0  0  0  0
   -0.7500    3.8971    0.0000 C   0  0  0  0  0  0  0  0  0  0  0  0
   -1.5000    5.1962    0.0000 C   0  0  0  0  0  0  0  0  0  0  0  0
   -3.0000    5.1962    0.0000 N   0  0  0  0  0  0  0  0  0  0  0  0
   -3.7500    3.8971    0.0000 C   0  0  0  0  0  0  0  0  0  0  0  0
   -3.0000    2.5981    0.0000 C   0  0  0  0  0  0  0  0  0  0  0  0
    0.7500    1.2990    0.0000 C   0  0  0  0  0  0  0  0  0  0  0  0
    1.5000    2.5981    0.0000 N   0  0  0  0  0  0  0  0  0  0  0  0
  1  2  1  0
  2  3  2  0
  2  4  1  0
  4  5  2  0
  5  6  1  0
  6  7  1  0
  7  8  2  0
  8  9  1  0
  9 10  2  0
 10 11  1  0
 10 12  1  0
 12 13  2  0
  6 14  2  0
 14 15  1  0
 15 16  1  0
 16 17  2  0
 17 18  1  0
 18 19  2  0
 19 20  1  0
 20 21  2  0
 15 22  2  0
 22 23  1  0
 22  4  1  0
 13  7  1  0
 21 16  1  0
M  END
>  <Compound_ID>  (543) 
CHEMBL231623

>  <Molecule Name>  (543) 
GSK-620503A

>  <Molecular Weight>  (543) 
307.33

>  <AlogP>  (543) 
3.24

>  <Smiles>  (543) 
NC(=O)c1cc(-c2ccc(F)cc2)cc(-c2ccncc2)c1N

>  <Standard Type>  (543) 
Inhibition

>  <Standard Relation>  (543) 
'='

>  <Standard Units>  (543) 
%

>  <Standard Value>  (543) 
1.8

>  <Assay ChEMBL ID>  (543) 
CHEMBL1962240

>  <Assay Description>  (543) 
GSK_PKIS: ALK mean inhibition at 0.1 uM [Nanosyn]

>  <BAO Format ID>  (543) 
BAO_0000357

>  <BAO Label>  (543) 
single protein format

>  <Assay Organism>  (543) 
None

>  <Target ChEMBL ID>  (543) 
CHEMBL4247

>  <Target Name>  (543) 
ALK tyrosine kinase receptor

>  <Target Organism>  (543) 
Homo sapiens

>  <Target Type>  (543) 
SINGLE PROTEIN

>  <Document ChEMBL ID>  (543) 
CHEMBL1961873

>  <Source Description>  (543) 
GSK Published Kinase Inhibitor Set

>  <Document Journal>  (543) 
nan

>  <Document Year>  (543) 
nan

>  <Active>  (543) 
0.0

>  <bits>  (543) 
<rdkit.DataStructs.cDataStructs.ExplicitBitVect object at 0x000002422F1A93F0>

>  <Group>  (543) 
G2

$$$$

     RDKit          2D

 24 27  0  0  0  0  0  0  0  0999 V2000
   -2.5546    4.4425    0.0000 C   0  0  0  0  0  0  0  0  0  0  0  0
   -3.8536    3.6925    0.0000 O   0  0  0  0  0  0  0  0  0  0  0  0
   -3.8536    2.1925    0.0000 C   0  0  0  0  0  0  0  0  0  0  0  0
   -2.5546    1.4425    0.0000 C   0  0  0  0  0  0  0  0  0  0  0  0
   -2.5546   -0.0575    0.0000 C   0  0  0  0  0  0  0  0  0  0  0  0
   -3.8536   -0.8075    0.0000 C   0  0  0  0  0  0  0  0  0  0  0  0
   -3.8536   -2.3075    0.0000 C   0  0  0  0  0  0  0  0  0  0  0  0
   -2.6401   -3.1891    0.0000 C   0  0  0  0  0  0  0  0  0  0  0  0
   -1.2135   -2.7256    0.0000 N   0  0  0  0  0  0  0  0  0  0  0  0
   -0.0000   -3.6073    0.0000 C   0  0  0  0  0  0  0  0  0  0  0  0
    1.2135   -2.7256    0.0000 C   0  0  0  0  0  0  0  0  0  0  0  0
    0.7500   -1.2990    0.0000 C   0  0  0  0  0  0  0  0  0  0  0  0
    1.5000    0.0000    0.0000 C   0  0  0  0  0  0  0  0  0  0  0  0
    0.7500    1.2990    0.0000 C   0  0  0  0  0  0  0  0  0  0  0  0
   -0.7500    1.2990    0.0000 C   0  0  0  0  0  0  0  0  0  0  0  0
   -1.5000    0.0000    0.0000 C   0  0  0  0  0  0  0  0  0  0  0  0
   -0.7500   -1.2990    0.0000 C   0  0  0  0  0  0  0  0  0  0  0  0
   -3.1036   -4.6157    0.0000 C   0  0  0  0  0  0  0  0  0  0  0  0
   -2.2220   -5.8293    0.0000 O   0  0  0  0  0  0  0  0  0  0  0  0
   -4.6036   -4.6157    0.0000 N   0  0  0  0  0  0  0  0  0  0  0  0
   -5.0672   -3.1891    0.0000 C   0  0  0  0  0  0  0  0  0  0  0  0
   -6.4937   -2.7256    0.0000 O   0  0  0  0  0  0  0  0  0  0  0  0
   -5.1527   -0.0575    0.0000 C   0  0  0  0  0  0  0  0  0  0  0  0
   -5.1527    1.4425    0.0000 C   0  0  0  0  0  0  0  0  0  0  0  0
  1  2  1  0
  2  3  1  0
  3  4  2  0
  4  5  1  0
  5  6  2  0
  6  7  1  0
  7  8  2  0
  8  9  1  0
  9 10  1  0
 10 11  1  0
 11 12  1  0
 12 13  2  0
 13 14  1  0
 14 15  2  0
 15 16  1  0
 16 17  2  0
  8 18  1  0
 18 19  2  0
 18 20  1  0
 20 21  1  0
 21 22  2  0
  6 23  1  0
 23 24  2  0
 24  3  1  0
 21  7  1  0
 17  9  1  0
 17 12  1  0
M  END
>  <Compound_ID>  (544) 
CHEMBL347580

>  <Molecule Name>  (544) 
nan

>  <Molecular Weight>  (544) 
320.35

>  <AlogP>  (544) 
2.13

>  <Smiles>  (544) 
COc1ccc(C2=C(N3CCc4ccccc43)C(=O)NC2=O)cc1

>  <Standard Type>  (544) 
Inhibition

>  <Standard Relation>  (544) 
'='

>  <Standard Units>  (544) 
%

>  <Standard Value>  (544) 
1.29

>  <Assay ChEMBL ID>  (544) 
CHEMBL1962240

>  <Assay Description>  (544) 
GSK_PKIS: ALK mean inhibition at 0.1 uM [Nanosyn]

>  <BAO Format ID>  (544) 
BAO_0000357

>  <BAO Label>  (544) 
single protein format

>  <Assay Organism>  (544) 
None

>  <Target ChEMBL ID>  (544) 
CHEMBL4247

>  <Target Name>  (544) 
ALK tyrosine kinase receptor

>  <Target Organism>  (544) 
Homo sapiens

>  <Target Type>  (544) 
SINGLE PROTEIN

>  <Document ChEMBL ID>  (544) 
CHEMBL1961873

>  <Source Description>  (544) 
GSK Published Kinase Inhibitor Set

>  <Document Journal>  (544) 
nan

>  <Document Year>  (544) 
nan

>  <Active>  (544) 
0.0

>  <bits>  (544) 
<rdkit.DataStructs.cDataStructs.ExplicitBitVect object at 0x000002422F1A8900>

>  <Group>  (544) 
G2

$$$$

     RDKit          2D

 30 32  0  0  0  0  0  0  0  0999 V2000
    3.7500   -1.2990    0.0000 C   0  0  0  0  0  0  0  0  0  0  0  0
    3.0000    0.0000    0.0000 O   0  0  0  0  0  0  0  0  0  0  0  0
    1.5000    0.0000    0.0000 C   0  0  0  0  0  0  0  0  0  0  0  0
    0.7500   -1.2990    0.0000 C   0  0  0  0  0  0  0  0  0  0  0  0
   -0.7500   -1.2990    0.0000 C   0  0  0  0  0  0  0  0  0  0  0  0
   -1.5000    0.0000    0.0000 C   0  0  0  0  0  0  0  0  0  0  0  0
   -3.0000    0.0000    0.0000 C   0  0  0  0  0  0  0  0  0  0  0  0
   -3.7500    1.2990    0.0000 N   0  0  0  0  0  0  0  0  0  0  0  0
   -5.2500    1.2990    0.0000 N   0  0  0  0  0  0  0  0  0  0  0  0
   -6.0000    2.5981    0.0000 C   0  0  0  0  0  0  0  0  0  0  0  0
   -7.4918    2.7549    0.0000 N   0  0  0  0  0  0  0  0  0  0  0  0
   -7.8037    4.2221    0.0000 N   0  0  0  0  0  0  0  0  0  0  0  0
   -6.5046    4.9721    0.0000 C   0  0  0  0  0  0  0  0  0  0  0  0
   -6.3478    6.4639    0.0000 C   0  0  0  0  0  0  0  0  0  0  0  0
   -5.3899    3.9684    0.0000 C   0  0  0  0  0  0  0  0  0  0  0  0
   -3.9227    4.2803    0.0000 C   0  0  0  0  0  0  0  0  0  0  0  0
   -2.9190    3.1655    0.0000 O   0  0  0  0  0  0  0  0  0  0  0  0
   -3.4591    5.7068    0.0000 N   0  0  0  0  0  0  0  0  0  0  0  0
   -1.9919    6.0187    0.0000 C   0  0  0  0  0  0  0  0  0  0  0  0
   -0.9882    4.9040    0.0000 C   0  0  0  0  0  0  0  0  0  0  0  0
    0.4790    5.2159    0.0000 C   0  0  0  0  0  0  0  0  0  0  0  0
    0.9425    6.6424    0.0000 C   0  0  0  0  0  0  0  0  0  0  0  0
   -0.0612    7.7572    0.0000 C   0  0  0  0  0  0  0  0  0  0  0  0
    0.4023    9.1838    0.0000 N   0  0  0  0  0  0  0  0  0  0  0  0
    1.8696    9.4956    0.0000 C   0  0  0  0  0  0  0  0  0  0  0  0
    2.3331   10.9222    0.0000 C   0  0  0  0  0  0  0  0  0  0  0  0
    2.8733    8.3809    0.0000 O   0  0  0  0  0  0  0  0  0  0  0  0
   -1.5284    7.4453    0.0000 C   0  0  0  0  0  0  0  0  0  0  0  0
   -0.7500    1.2990    0.0000 C   0  0  0  0  0  0  0  0  0  0  0  0
    0.7500    1.2990    0.0000 C   0  0  0  0  0  0  0  0  0  0  0  0
  1  2  1  0
  2  3  1  0
  3  4  2  0
  4  5  1  0
  5  6  2  0
  6  7  1  0
  7  8  2  0
  8  9  1  0
  9 10  1  0
 10 11  1  0
 11 12  1  0
 12 13  2  0
 13 14  1  0
 13 15  1  0
 15 16  1  0
 16 17  2  0
 16 18  1  0
 18 19  1  0
 19 20  2  0
 20 21  1  0
 21 22  2  0
 22 23  1  0
 23 24  1  0
 24 25  1  0
 25 26  1  0
 25 27  2  0
 23 28  2  0
  6 29  1  0
 29 30  2  0
 30  3  1  0
 15 10  2  0
 28 19  1  0
M  END
>  <Compound_ID>  (545) 
CHEMBL515560

>  <Molecule Name>  (545) 
nan

>  <Molecular Weight>  (545) 
406.45

>  <AlogP>  (545) 
3.38

>  <Smiles>  (545) 
COc1ccc(/C=N/Nc2[nH]nc(C)c2C(=O)Nc2cccc(NC(C)=O)c2)cc1

>  <Standard Type>  (545) 
Inhibition

>  <Standard Relation>  (545) 
'='

>  <Standard Units>  (545) 
%

>  <Standard Value>  (545) 
1.0

>  <Assay ChEMBL ID>  (545) 
CHEMBL1006299

>  <Assay Description>  (545) 
Inhibition of ALK at 1 uM relative to control

>  <BAO Format ID>  (545) 
BAO_0000357

>  <BAO Label>  (545) 
single protein format

>  <Assay Organism>  (545) 
None

>  <Target ChEMBL ID>  (545) 
CHEMBL4247

>  <Target Name>  (545) 
ALK tyrosine kinase receptor

>  <Target Organism>  (545) 
Homo sapiens

>  <Target Type>  (545) 
SINGLE PROTEIN

>  <Document ChEMBL ID>  (545) 
CHEMBL1140919

>  <Source Description>  (545) 
Scientific Literature

>  <Document Journal>  (545) 
J Med Chem

>  <Document Year>  (545) 
2009.0

>  <Active>  (545) 
0.0

>  <bits>  (545) 
<rdkit.DataStructs.cDataStructs.ExplicitBitVect object at 0x000002422F1A8040>

>  <Group>  (545) 
G2

$$$$

     RDKit          2D

 32 34  0  0  0  0  0  0  0  0999 V2000
    3.7500   -1.2990    0.0000 C   0  0  0  0  0  0  0  0  0  0  0  0
    3.0000    0.0000    0.0000 C   0  0  0  0  0  0  0  0  0  0  0  0
    3.7500    1.2990    0.0000 C   0  0  0  0  0  0  0  0  0  0  0  0
    1.5000    0.0000    0.0000 C   0  0  0  0  0  0  0  0  0  0  0  0
    0.7500   -1.2990    0.0000 C   0  0  0  0  0  0  0  0  0  0  0  0
   -0.7500   -1.2990    0.0000 C   0  0  0  0  0  0  0  0  0  0  0  0
   -1.5000   -2.5981    0.0000 C   0  0  0  0  0  0  0  0  0  0  0  0
   -3.0000   -2.5981    0.0000 C   0  0  0  0  0  0  0  0  0  0  0  0
   -0.7500   -3.8971    0.0000 C   0  0  0  0  0  0  0  0  0  0  0  0
   -1.5000    0.0000    0.0000 C   0  0  0  0  0  0  0  0  0  0  0  0
   -3.0000    0.0000    0.0000 S   0  0  0  0  0  0  0  0  0  0  0  0
   -3.0000    1.5000    0.0000 O   0  0  0  0  0  0  0  0  0  0  0  0
   -3.0000   -1.5000    0.0000 O   0  0  0  0  0  0  0  0  0  0  0  0
   -4.5000    0.0000    0.0000 N   0  0  0  0  0  0  0  0  0  0  0  0
   -5.2500   -1.2990    0.0000 C   0  0  0  0  0  0  0  0  0  0  0  0
   -6.7500   -1.2990    0.0000 C   0  0  0  0  0  0  0  0  0  0  0  0
   -7.5000   -2.5981    0.0000 C   0  0  0  0  0  0  0  0  0  0  0  0
   -6.7500   -3.8971    0.0000 C   0  0  0  0  0  0  0  0  0  0  0  0
   -7.5000   -5.1962    0.0000 O   0  0  0  0  0  0  0  0  0  0  0  0
   -5.2500   -3.8971    0.0000 C   0  0  0  0  0  0  0  0  0  0  0  0
   -4.5000   -5.1962    0.0000 S   0  0  0  0  0  0  0  0  0  0  0  0
   -5.2500   -6.4952    0.0000 C   0  0  0  0  0  0  0  0  0  0  0  0
   -4.6399   -7.8655    0.0000 N   0  0  0  0  0  0  0  0  0  0  0  0
   -5.7546   -8.8692    0.0000 C   0  0  0  0  0  0  0  0  0  0  0  0
   -7.0537   -8.1192    0.0000 N   0  0  0  0  0  0  0  0  0  0  0  0
   -6.7418   -6.6520    0.0000 N   0  0  0  0  0  0  0  0  0  0  0  0
   -4.5000   -2.5981    0.0000 C   0  0  0  0  0  0  0  0  0  0  0  0
   -0.7500    1.2990    0.0000 C   0  0  0  0  0  0  0  0  0  0  0  0
   -1.5000    2.5981    0.0000 C   0  0  0  0  0  0  0  0  0  0  0  0
   -0.7500    3.8971    0.0000 C   0  0  0  0  0  0  0  0  0  0  0  0
   -3.0000    2.5981    0.0000 C   0  0  0  0  0  0  0  0  0  0  0  0
    0.7500    1.2990    0.0000 C   0  0  0  0  0  0  0  0  0  0  0  0
  1  2  1  0
  2  3  1  0
  2  4  1  0
  4  5  2  0
  5  6  1  0
  6  7  1  0
  7  8  1  0
  7  9  1  0
  6 10  2  0
 10 11  1  0
 11 12  2  0
 11 13  2  0
 11 14  1  0
 14 15  1  0
 15 16  2  0
 16 17  1  0
 17 18  2  0
 18 19  1  0
 18 20  1  0
 20 21  1  0
 21 22  1  0
 22 23  2  0
 23 24  1  0
 24 25  2  0
 25 26  1  0
 20 27  2  0
 10 28  1  0
 28 29  1  0
 29 30  1  0
 29 31  1  0
 28 32  2  0
 32  4  1  0
 27 15  1  0
 26 22  1  0
M  END
>  <Compound_ID>  (546) 
CHEMBL2436638

>  <Molecule Name>  (546) 
nan

>  <Molecular Weight>  (546) 
474.65

>  <AlogP>  (546) 
5.83

>  <Smiles>  (546) 
CC(C)c1cc(C(C)C)c(S(=O)(=O)Nc2ccc(O)c(Sc3ncn[nH]3)c2)c(C(C)C)c1

>  <Standard Type>  (546) 
Inhibition

>  <Standard Relation>  (546) 
'='

>  <Standard Units>  (546) 
%

>  <Standard Value>  (546) 
17.12

>  <Assay ChEMBL ID>  (546) 
CHEMBL2438115

>  <Assay Description>  (546) 
Inhibition of ALK (unknown origin) at 10 uM after 30 mins by fluorescence assay relative to control

>  <BAO Format ID>  (546) 
BAO_0000357

>  <BAO Label>  (546) 
single protein format

>  <Assay Organism>  (546) 
Homo sapiens

>  <Target ChEMBL ID>  (546) 
CHEMBL4247

>  <Target Name>  (546) 
ALK tyrosine kinase receptor

>  <Target Organism>  (546) 
Homo sapiens

>  <Target Type>  (546) 
SINGLE PROTEIN

>  <Document ChEMBL ID>  (546) 
CHEMBL2434840

>  <Source Description>  (546) 
Scientific Literature

>  <Document Journal>  (546) 
Eur J Med Chem

>  <Document Year>  (546) 
2013.0

>  <Active>  (546) 
0.0

>  <bits>  (546) 
<rdkit.DataStructs.cDataStructs.ExplicitBitVect object at 0x000002422F1A8AC0>

>  <Group>  (546) 
G2

$$$$

     RDKit          2D

 29 31  0  0  0  0  0  0  0  0999 V2000
    7.5000   -2.5981    0.0000 C   0  0  0  0  0  0  0  0  0  0  0  0
    6.0000   -2.5981    0.0000 C   0  0  0  0  0  0  0  0  0  0  0  0
    5.2500   -3.8971    0.0000 C   0  0  0  0  0  0  0  0  0  0  0  0
    5.2500   -1.2990    0.0000 C   0  0  0  0  0  0  0  0  0  0  0  0
    3.7500   -1.2990    0.0000 O   0  0  0  0  0  0  0  0  0  0  0  0
    3.0000    0.0000    0.0000 C   0  0  0  0  0  0  0  0  0  0  0  0
    3.7500    1.2990    0.0000 O   0  0  0  0  0  0  0  0  0  0  0  0
    1.5000    0.0000    0.0000 C   0  0  0  0  0  0  0  0  0  0  0  0
    0.7500   -1.2990    0.0000 C   0  0  0  0  0  0  0  0  0  0  0  0
   -0.7500   -1.2990    0.0000 C   0  0  0  0  0  0  0  0  0  0  0  0
   -1.5000    0.0000    0.0000 C   0  0  0  0  0  0  0  0  0  0  0  0
   -0.7500    1.2990    0.0000 C   0  0  0  0  0  0  0  0  0  0  0  0
    0.7500    1.2990    0.0000 C   0  0  0  0  0  0  0  0  0  0  0  0
   -1.7537    2.4138    0.0000 C   0  0  0  0  0  0  0  0  0  0  0  0
   -1.4418    3.8810    0.0000 C   0  0  0  0  0  0  0  0  0  0  0  0
   -2.5565    4.8847    0.0000 N   0  0  0  0  0  0  0  0  0  0  0  0
   -2.2447    6.3519    0.0000 C   0  0  0  0  0  0  0  0  0  0  0  0
   -0.8181    6.8154    0.0000 C   0  0  0  0  0  0  0  0  0  0  0  0
   -0.5062    8.2826    0.0000 C   0  0  0  0  0  0  0  0  0  0  0  0
   -1.6209    9.2863    0.0000 C   0  0  0  0  0  0  0  0  0  0  0  0
   -1.3091   10.7536    0.0000 S   0  0  0  0  0  0  0  0  0  0  0  0
   -0.9972   12.2208    0.0000 N   0  0  0  0  0  0  0  0  0  0  0  0
    0.1581   10.4417    0.0000 O   0  0  0  0  0  0  0  0  0  0  0  0
   -2.7763   11.0654    0.0000 O   0  0  0  0  0  0  0  0  0  0  0  0
   -3.0475    8.8228    0.0000 C   0  0  0  0  0  0  0  0  0  0  0  0
   -3.3594    7.3556    0.0000 C   0  0  0  0  0  0  0  0  0  0  0  0
   -3.1240    1.8037    0.0000 C   0  0  0  0  0  0  0  0  0  0  0  0
   -4.4231    2.5537    0.0000 O   0  0  0  0  0  0  0  0  0  0  0  0
   -2.9672    0.3119    0.0000 N   0  0  0  0  0  0  0  0  0  0  0  0
  1  2  1  0
  2  3  1  0
  2  4  1  0
  4  5  1  0
  5  6  1  0
  6  7  2  0
  6  8  1  0
  8  9  2  0
  9 10  1  0
 10 11  2  0
 11 12  1  0
 12 13  2  0
 12 14  1  0
 14 15  2  0
 15 16  1  0
 16 17  1  0
 17 18  2  0
 18 19  1  0
 19 20  2  0
 20 21  1  0
 21 22  1  0
 21 23  2  0
 21 24  2  0
 20 25  1  0
 25 26  2  0
 14 27  1  0
 27 28  2  0
 27 29  1  0
 13  8  1  0
 26 17  1  0
 29 11  1  0
M  END
>  <Compound_ID>  (547) 
CHEMBL269883

>  <Molecule Name>  (547) 
GW416981X

>  <Molecular Weight>  (547) 
415.47

>  <AlogP>  (547) 
2.55

>  <Smiles>  (547) 
CC(C)COC(=O)c1ccc2c(c1)/C(=C/Nc1ccc(S(N)(=O)=O)cc1)C(=O)N2

>  <Standard Type>  (547) 
Inhibition

>  <Standard Relation>  (547) 
'='

>  <Standard Units>  (547) 
%

>  <Standard Value>  (547) 
-0.71

>  <Assay ChEMBL ID>  (547) 
CHEMBL1962240

>  <Assay Description>  (547) 
GSK_PKIS: ALK mean inhibition at 0.1 uM [Nanosyn]

>  <BAO Format ID>  (547) 
BAO_0000357

>  <BAO Label>  (547) 
single protein format

>  <Assay Organism>  (547) 
None

>  <Target ChEMBL ID>  (547) 
CHEMBL4247

>  <Target Name>  (547) 
ALK tyrosine kinase receptor

>  <Target Organism>  (547) 
Homo sapiens

>  <Target Type>  (547) 
SINGLE PROTEIN

>  <Document ChEMBL ID>  (547) 
CHEMBL1961873

>  <Source Description>  (547) 
GSK Published Kinase Inhibitor Set

>  <Document Journal>  (547) 
nan

>  <Document Year>  (547) 
nan

>  <Active>  (547) 
0.0

>  <bits>  (547) 
<rdkit.DataStructs.cDataStructs.ExplicitBitVect object at 0x000002422F1A8C10>

>  <Group>  (547) 
G2

$$$$

     RDKit          2D

 20 22  0  0  0  0  0  0  0  0999 V2000
    4.5000    0.0000    0.0000 N   0  0  0  0  0  0  0  0  0  0  0  0
    3.0000    0.0000    0.0000 C   0  0  0  0  0  0  0  0  0  0  0  0
    1.5000    0.0000    0.0000 C   0  0  0  0  0  0  0  0  0  0  0  0
    0.7500   -1.2990    0.0000 C   0  0  0  0  0  0  0  0  0  0  0  0
   -0.7500   -1.2990    0.0000 C   0  0  0  0  0  0  0  0  0  0  0  0
   -1.5000    0.0000    0.0000 C   0  0  0  0  0  0  0  0  0  0  0  0
   -0.7500    1.2990    0.0000 C   0  0  0  0  0  0  0  0  0  0  0  0
   -1.5000    2.5981    0.0000 N   0  0  0  0  0  0  0  0  0  0  0  0
   -0.7500    3.8971    0.0000 C   0  0  0  0  0  0  0  0  0  0  0  0
   -1.3601    5.2674    0.0000 N   0  0  0  0  0  0  0  0  0  0  0  0
   -0.2454    6.2711    0.0000 C   0  0  0  0  0  0  0  0  0  0  0  0
    1.0537    5.5211    0.0000 C   0  0  0  0  0  0  0  0  0  0  0  0
    2.4240    6.1312    0.0000 C   0  0  0  0  0  0  0  0  0  0  0  0
    3.6375    5.2496    0.0000 C   0  0  0  0  0  0  0  0  0  0  0  0
    5.0078    5.8597    0.0000 C   0  0  0  0  0  0  0  0  0  0  0  0
    5.1646    7.3514    0.0000 C   0  0  0  0  0  0  0  0  0  0  0  0
    3.9511    8.2331    0.0000 C   0  0  0  0  0  0  0  0  0  0  0  0
    2.5808    7.6230    0.0000 C   0  0  0  0  0  0  0  0  0  0  0  0
    0.7418    4.0539    0.0000 O   0  0  0  0  0  0  0  0  0  0  0  0
    0.7500    1.2990    0.0000 C   0  0  0  0  0  0  0  0  0  0  0  0
  1  2  3  0
  2  3  1  0
  3  4  2  0
  4  5  1  0
  5  6  2  0
  6  7  1  0
  7  8  1  0
  8  9  1  0
  9 10  2  0
 10 11  1  0
 11 12  2  0
 12 13  1  0
 13 14  2  0
 14 15  1  0
 15 16  2  0
 16 17  1  0
 17 18  2  0
 12 19  1  0
  7 20  2  0
 20  3  1  0
 19  9  1  0
 18 13  1  0
M  END
>  <Compound_ID>  (548) 
CHEMBL1794061

>  <Molecule Name>  (548) 
GW627834A

>  <Molecular Weight>  (548) 
297.74

>  <AlogP>  (548) 
3.96

>  <Smiles>  (548) 
N#Cc1cccc(Nc2ncc(-c3ccccc3)o2)c1

>  <Standard Type>  (548) 
Inhibition

>  <Standard Relation>  (548) 
'='

>  <Standard Units>  (548) 
%

>  <Standard Value>  (548) 
1.63

>  <Assay ChEMBL ID>  (548) 
CHEMBL1962240

>  <Assay Description>  (548) 
GSK_PKIS: ALK mean inhibition at 0.1 uM [Nanosyn]

>  <BAO Format ID>  (548) 
BAO_0000357

>  <BAO Label>  (548) 
single protein format

>  <Assay Organism>  (548) 
None

>  <Target ChEMBL ID>  (548) 
CHEMBL4247

>  <Target Name>  (548) 
ALK tyrosine kinase receptor

>  <Target Organism>  (548) 
Homo sapiens

>  <Target Type>  (548) 
SINGLE PROTEIN

>  <Document ChEMBL ID>  (548) 
CHEMBL1961873

>  <Source Description>  (548) 
GSK Published Kinase Inhibitor Set

>  <Document Journal>  (548) 
nan

>  <Document Year>  (548) 
nan

>  <Active>  (548) 
0.0

>  <bits>  (548) 
<rdkit.DataStructs.cDataStructs.ExplicitBitVect object at 0x000002422F1A9070>

>  <Group>  (548) 
G2

$$$$

     RDKit          2D

 32 35  0  0  0  0  0  0  0  0999 V2000
    9.0985   -9.6461    0.0000 C   0  0  0  0  0  0  0  0  0  0  0  0
    7.7282   -9.0360    0.0000 S   0  0  0  0  0  0  0  0  0  0  0  0
    8.3383   -7.6657    0.0000 O   0  0  0  0  0  0  0  0  0  0  0  0
    7.1181  -10.4063    0.0000 O   0  0  0  0  0  0  0  0  0  0  0  0
    6.3579   -8.4259    0.0000 C   0  0  0  0  0  0  0  0  0  0  0  0
    6.2011   -6.9341    0.0000 C   0  0  0  0  0  0  0  0  0  0  0  0
    4.8308   -6.3240    0.0000 N   0  0  0  0  0  0  0  0  0  0  0  0
    4.6740   -4.8322    0.0000 C   0  0  0  0  0  0  0  0  0  0  0  0
    3.3037   -4.2221    0.0000 C   0  0  0  0  0  0  0  0  0  0  0  0
    2.9918   -2.7549    0.0000 N   0  0  0  0  0  0  0  0  0  0  0  0
    1.5000   -2.5981    0.0000 C   0  0  0  0  0  0  0  0  0  0  0  0
    0.7500   -1.2990    0.0000 C   0  0  0  0  0  0  0  0  0  0  0  0
    1.5000    0.0000    0.0000 C   0  0  0  0  0  0  0  0  0  0  0  0
    0.7500    1.2990    0.0000 C   0  0  0  0  0  0  0  0  0  0  0  0
   -0.7500    1.2990    0.0000 C   0  0  0  0  0  0  0  0  0  0  0  0
   -1.5000    2.5981    0.0000 N   0  0  0  0  0  0  0  0  0  0  0  0
   -3.0000    2.5981    0.0000 C   0  0  0  0  0  0  0  0  0  0  0  0
   -3.7500    1.2990    0.0000 N   0  0  0  0  0  0  0  0  0  0  0  0
   -3.0000    0.0000    0.0000 C   0  0  0  0  0  0  0  0  0  0  0  0
   -3.7500   -1.2990    0.0000 N   0  0  0  0  0  0  0  0  0  0  0  0
   -5.2500   -1.2990    0.0000 C   0  0  0  0  0  0  0  0  0  0  0  0
   -6.0000    0.0000    0.0000 C   0  0  0  0  0  0  0  0  0  0  0  0
   -7.5000    0.0000    0.0000 C   0  0  0  0  0  0  0  0  0  0  0  0
   -8.2500   -1.2990    0.0000 C   0  0  0  0  0  0  0  0  0  0  0  0
   -9.7500   -1.2990    0.0000 F   0  0  0  0  0  0  0  0  0  0  0  0
   -7.5000   -2.5981    0.0000 C   0  0  0  0  0  0  0  0  0  0  0  0
   -8.2500   -3.8971    0.0000 Cl  0  0  0  0  0  0  0  0  0  0  0  0
   -6.0000   -2.5981    0.0000 C   0  0  0  0  0  0  0  0  0  0  0  0
   -1.5000    0.0000    0.0000 C   0  0  0  0  0  0  0  0  0  0  0  0
   -0.7500   -1.2990    0.0000 C   0  0  0  0  0  0  0  0  0  0  0  0
    0.8899   -3.9684    0.0000 C   0  0  0  0  0  0  0  0  0  0  0  0
    2.0046   -4.9721    0.0000 S   0  0  0  0  0  0  0  0  0  0  0  0
  1  2  1  0
  2  3  2  0
  2  4  2  0
  2  5  1  0
  5  6  1  0
  6  7  1  0
  7  8  1  0
  8  9  1  0
  9 10  2  0
 10 11  1  0
 11 12  1  0
 12 13  2  0
 13 14  1  0
 14 15  2  0
 15 16  1  0
 16 17  2  0
 17 18  1  0
 18 19  2  0
 19 20  1  0
 20 21  1  0
 21 22  2  0
 22 23  1  0
 23 24  2  0
 24 25  1  0
 24 26  1  0
 26 27  1  0
 26 28  2  0
 19 29  1  0
 29 30  2  0
 11 31  2  0
 31 32  1  0
 32  9  1  0
 30 12  1  0
 29 15  1  0
 28 21  1  0
M  END
>  <Compound_ID>  (549) 
CHEMBL1909355

>  <Molecule Name>  (549) 
GW461104A

>  <Molecular Weight>  (549) 
528.46

>  <AlogP>  (549) 
4.42

>  <Smiles>  (549) 
CS(=O)(=O)CCNCc1nc(-c2ccc3ncnc(Nc4ccc(F)c(Cl)c4)c3c2)cs1

>  <Standard Type>  (549) 
Inhibition

>  <Standard Relation>  (549) 
'='

>  <Standard Units>  (549) 
%

>  <Standard Value>  (549) 
3.6

>  <Assay ChEMBL ID>  (549) 
CHEMBL1962241

>  <Assay Description>  (549) 
GSK_PKIS: ALK mean inhibition at 1 uM [Nanosyn]

>  <BAO Format ID>  (549) 
BAO_0000357

>  <BAO Label>  (549) 
single protein format

>  <Assay Organism>  (549) 
None

>  <Target ChEMBL ID>  (549) 
CHEMBL4247

>  <Target Name>  (549) 
ALK tyrosine kinase receptor

>  <Target Organism>  (549) 
Homo sapiens

>  <Target Type>  (549) 
SINGLE PROTEIN

>  <Document ChEMBL ID>  (549) 
CHEMBL1961873

>  <Source Description>  (549) 
GSK Published Kinase Inhibitor Set

>  <Document Journal>  (549) 
nan

>  <Document Year>  (549) 
nan

>  <Active>  (549) 
0.0

>  <bits>  (549) 
<rdkit.DataStructs.cDataStructs.ExplicitBitVect object at 0x000002422F1A8DD0>

>  <Group>  (549) 
G2

$$$$

     RDKit          2D

 23 25  0  0  0  0  0  0  0  0999 V2000
  -10.8878   -4.5031    0.0000 C   0  0  0  0  0  0  0  0  0  0  0  0
   -9.7730   -5.5068    0.0000 S   0  0  0  0  0  0  0  0  0  0  0  0
   -8.7693   -4.3921    0.0000 O   0  0  0  0  0  0  0  0  0  0  0  0
  -10.7767   -6.6215    0.0000 O   0  0  0  0  0  0  0  0  0  0  0  0
   -8.6583   -6.5105    0.0000 N   0  0  0  0  0  0  0  0  0  0  0  0
   -7.2317   -6.0469    0.0000 C   0  0  0  0  0  0  0  0  0  0  0  0
   -6.9199   -4.5797    0.0000 C   0  0  0  0  0  0  0  0  0  0  0  0
   -5.4933   -4.1162    0.0000 C   0  0  0  0  0  0  0  0  0  0  0  0
   -4.3786   -5.1199    0.0000 C   0  0  0  0  0  0  0  0  0  0  0  0
   -2.9520   -4.6564    0.0000 N   0  0  0  0  0  0  0  0  0  0  0  0
   -2.6401   -3.1891    0.0000 C   0  0  0  0  0  0  0  0  0  0  0  0
   -1.2135   -2.7256    0.0000 C   0  0  0  0  0  0  0  0  0  0  0  0
   -0.0000   -3.6073    0.0000 C   0  0  0  0  0  0  0  0  0  0  0  0
    0.0000   -5.1073    0.0000 O   0  0  0  0  0  0  0  0  0  0  0  0
    1.2135   -2.7256    0.0000 N   0  0  0  0  0  0  0  0  0  0  0  0
    0.7500   -1.2990    0.0000 C   0  0  0  0  0  0  0  0  0  0  0  0
    1.5000    0.0000    0.0000 C   0  0  0  0  0  0  0  0  0  0  0  0
    0.7500    1.2990    0.0000 C   0  0  0  0  0  0  0  0  0  0  0  0
   -0.7500    1.2990    0.0000 C   0  0  0  0  0  0  0  0  0  0  0  0
   -1.5000    0.0000    0.0000 C   0  0  0  0  0  0  0  0  0  0  0  0
   -0.7500   -1.2990    0.0000 C   0  0  0  0  0  0  0  0  0  0  0  0
   -4.6904   -6.5871    0.0000 C   0  0  0  0  0  0  0  0  0  0  0  0
   -6.1170   -7.0506    0.0000 C   0  0  0  0  0  0  0  0  0  0  0  0
  1  2  1  0
  2  3  2  0
  2  4  2  0
  2  5  1  0
  5  6  1  0
  6  7  2  0
  7  8  1  0
  8  9  2  0
  9 10  1  0
 10 11  1  0
 11 12  2  0
 12 13  1  0
 13 14  2  0
 13 15  1  0
 15 16  1  0
 16 17  2  0
 17 18  1  0
 18 19  2  0
 19 20  1  0
 20 21  2  0
  9 22  1  0
 22 23  2  0
 23  6  1  0
 21 12  1  0
 21 16  1  0
M  END
>  <Compound_ID>  (550) 
CHEMBL1794058

>  <Molecule Name>  (550) 
GW278681X

>  <Molecular Weight>  (550) 
329.38

>  <AlogP>  (550) 
2.46

>  <Smiles>  (550) 
CS(=O)(=O)Nc1ccc(N/C=C2\C(=O)Nc3ccccc32)cc1

>  <Standard Type>  (550) 
Inhibition

>  <Standard Relation>  (550) 
'='

>  <Standard Units>  (550) 
%

>  <Standard Value>  (550) 
5.88

>  <Assay ChEMBL ID>  (550) 
CHEMBL1962241

>  <Assay Description>  (550) 
GSK_PKIS: ALK mean inhibition at 1 uM [Nanosyn]

>  <BAO Format ID>  (550) 
BAO_0000357

>  <BAO Label>  (550) 
single protein format

>  <Assay Organism>  (550) 
None

>  <Target ChEMBL ID>  (550) 
CHEMBL4247

>  <Target Name>  (550) 
ALK tyrosine kinase receptor

>  <Target Organism>  (550) 
Homo sapiens

>  <Target Type>  (550) 
SINGLE PROTEIN

>  <Document ChEMBL ID>  (550) 
CHEMBL1961873

>  <Source Description>  (550) 
GSK Published Kinase Inhibitor Set

>  <Document Journal>  (550) 
nan

>  <Document Year>  (550) 
nan

>  <Active>  (550) 
0.0

>  <bits>  (550) 
<rdkit.DataStructs.cDataStructs.ExplicitBitVect object at 0x000002422F1A9460>

>  <Group>  (550) 
G2

$$$$

     RDKit          2D

 22 25  0  0  0  0  0  0  0  0999 V2000
    0.0000   -9.6073    0.0000 F   0  0  0  0  0  0  0  0  0  0  0  0
    0.0000   -8.1073    0.0000 C   0  0  0  0  0  0  0  0  0  0  0  0
   -1.2990   -7.3573    0.0000 C   0  0  0  0  0  0  0  0  0  0  0  0
   -1.2990   -5.8573    0.0000 C   0  0  0  0  0  0  0  0  0  0  0  0
   -0.0000   -5.1073    0.0000 C   0  0  0  0  0  0  0  0  0  0  0  0
   -0.0000   -3.6073    0.0000 C   0  0  0  0  0  0  0  0  0  0  0  0
    1.2135   -2.7256    0.0000 N   0  0  0  0  0  0  0  0  0  0  0  0
    0.7500   -1.2990    0.0000 N   0  0  0  0  0  0  0  0  0  0  0  0
    1.5000    0.0000    0.0000 C   0  0  0  0  0  0  0  0  0  0  0  0
    0.7500    1.2990    0.0000 C   0  0  0  0  0  0  0  0  0  0  0  0
   -0.7500    1.2990    0.0000 C   0  0  0  0  0  0  0  0  0  0  0  0
   -1.5000    0.0000    0.0000 C   0  0  0  0  0  0  0  0  0  0  0  0
   -0.7500   -1.2990    0.0000 C   0  0  0  0  0  0  0  0  0  0  0  0
   -1.2135   -2.7256    0.0000 C   0  0  0  0  0  0  0  0  0  0  0  0
   -2.6401   -3.1891    0.0000 C   0  0  0  0  0  0  0  0  0  0  0  0
   -3.7548   -2.1855    0.0000 C   0  0  0  0  0  0  0  0  0  0  0  0
   -5.1814   -2.6490    0.0000 C   0  0  0  0  0  0  0  0  0  0  0  0
   -5.4933   -4.1162    0.0000 N   0  0  0  0  0  0  0  0  0  0  0  0
   -4.3786   -5.1199    0.0000 C   0  0  0  0  0  0  0  0  0  0  0  0
   -2.9520   -4.6564    0.0000 C   0  0  0  0  0  0  0  0  0  0  0  0
    1.2990   -5.8573    0.0000 C   0  0  0  0  0  0  0  0  0  0  0  0
    1.2990   -7.3573    0.0000 C   0  0  0  0  0  0  0  0  0  0  0  0
  1  2  1  0
  2  3  2  0
  3  4  1  0
  4  5  2  0
  5  6  1  0
  6  7  2  0
  7  8  1  0
  8  9  1  0
  9 10  2  0
 10 11  1  0
 11 12  2  0
 12 13  1  0
 13 14  2  0
 14 15  1  0
 15 16  2  0
 16 17  1  0
 17 18  2  0
 18 19  1  0
 19 20  2  0
  5 21  1  0
 21 22  2  0
 22  2  1  0
 14  6  1  0
 20 15  1  0
 13  8  1  0
M  END
>  <Compound_ID>  (551) 
CHEMBL485745

>  <Molecule Name>  (551) 
GW434756X

>  <Molecular Weight>  (551) 
289.31

>  <AlogP>  (551) 
4.2

>  <Smiles>  (551) 
Fc1ccc(-c2nn3ccccc3c2-c2ccncc2)cc1

>  <Standard Type>  (551) 
Inhibition

>  <Standard Relation>  (551) 
'='

>  <Standard Units>  (551) 
%

>  <Standard Value>  (551) 
1.88

>  <Assay ChEMBL ID>  (551) 
CHEMBL1962241

>  <Assay Description>  (551) 
GSK_PKIS: ALK mean inhibition at 1 uM [Nanosyn]

>  <BAO Format ID>  (551) 
BAO_0000357

>  <BAO Label>  (551) 
single protein format

>  <Assay Organism>  (551) 
None

>  <Target ChEMBL ID>  (551) 
CHEMBL4247

>  <Target Name>  (551) 
ALK tyrosine kinase receptor

>  <Target Organism>  (551) 
Homo sapiens

>  <Target Type>  (551) 
SINGLE PROTEIN

>  <Document ChEMBL ID>  (551) 
CHEMBL1961873

>  <Source Description>  (551) 
GSK Published Kinase Inhibitor Set

>  <Document Journal>  (551) 
nan

>  <Document Year>  (551) 
nan

>  <Active>  (551) 
0.0

>  <bits>  (551) 
<rdkit.DataStructs.cDataStructs.ExplicitBitVect object at 0x000002422F1A8C80>

>  <Group>  (551) 
G2

$$$$

     RDKit          2D

 25 28  0  0  0  0  0  0  0  0999 V2000
   -8.6583   -6.5105    0.0000 C   0  0  0  0  0  0  0  0  0  0  0  0
   -7.2317   -6.0469    0.0000 N   0  0  0  0  0  0  0  0  0  0  0  0
   -6.9199   -4.5797    0.0000 C   0  0  0  0  0  0  0  0  0  0  0  0
   -5.4933   -4.1162    0.0000 C   0  0  0  0  0  0  0  0  0  0  0  0
   -4.3786   -5.1199    0.0000 C   0  0  0  0  0  0  0  0  0  0  0  0
   -2.9520   -4.6564    0.0000 C   0  0  0  0  0  0  0  0  0  0  0  0
   -1.8373   -5.6601    0.0000 O   0  0  0  0  0  0  0  0  0  0  0  0
   -2.6401   -3.1891    0.0000 N   0  0  0  0  0  0  0  0  0  0  0  0
   -1.2135   -2.7256    0.0000 C   0  0  0  0  0  0  0  0  0  0  0  0
   -0.0000   -3.6073    0.0000 N   0  0  0  0  0  0  0  0  0  0  0  0
    1.2135   -2.7256    0.0000 N   0  0  0  0  0  0  0  0  0  0  0  0
    0.7500   -1.2990    0.0000 C   0  0  0  0  0  0  0  0  0  0  0  0
    1.5000    0.0000    0.0000 N   0  0  0  0  0  0  0  0  0  0  0  0
    0.7500    1.2990    0.0000 N   0  0  0  0  0  0  0  0  0  0  0  0
   -0.7500    1.2990    0.0000 C   0  0  0  0  0  0  0  0  0  0  0  0
   -1.5000    2.5981    0.0000 C   0  0  0  0  0  0  0  0  0  0  0  0
   -0.7500    3.8971    0.0000 C   0  0  0  0  0  0  0  0  0  0  0  0
   -1.5000    5.1962    0.0000 C   0  0  0  0  0  0  0  0  0  0  0  0
   -3.0000    5.1962    0.0000 C   0  0  0  0  0  0  0  0  0  0  0  0
   -3.7500    3.8971    0.0000 C   0  0  0  0  0  0  0  0  0  0  0  0
   -3.0000    2.5981    0.0000 C   0  0  0  0  0  0  0  0  0  0  0  0
   -1.5000    0.0000    0.0000 C   0  0  0  0  0  0  0  0  0  0  0  0
   -0.7500   -1.2990    0.0000 C   0  0  0  0  0  0  0  0  0  0  0  0
   -4.6904   -6.5871    0.0000 C   0  0  0  0  0  0  0  0  0  0  0  0
   -6.1170   -7.0506    0.0000 C   0  0  0  0  0  0  0  0  0  0  0  0
  1  2  1  0
  2  3  1  0
  3  4  1  0
  4  5  1  0
  5  6  1  0
  6  7  2  0
  6  8  1  0
  8  9  1  0
  9 10  2  0
 10 11  1  0
 11 12  1  0
 12 13  2  0
 13 14  1  0
 14 15  2  0
 15 16  1  0
 16 17  2  0
 17 18  1  0
 18 19  2  0
 19 20  1  0
 20 21  2  0
 15 22  1  0
 22 23  2  0
  5 24  1  0
 24 25  1  0
 25  2  1  0
 23  9  1  0
 23 12  1  0
 21 16  1  0
M  END
>  <Compound_ID>  (552) 
CHEMBL1909344

>  <Molecule Name>  (552) 
nan

>  <Molecular Weight>  (552) 
372.86

>  <AlogP>  (552) 
2.3

>  <Smiles>  (552) 
CN1CCC(C(=O)Nc2n[nH]c3nnc(-c4ccccc4)cc23)CC1

>  <Standard Type>  (552) 
Inhibition

>  <Standard Relation>  (552) 
'='

>  <Standard Units>  (552) 
%

>  <Standard Value>  (552) 
2.9

>  <Assay ChEMBL ID>  (552) 
CHEMBL1962240

>  <Assay Description>  (552) 
GSK_PKIS: ALK mean inhibition at 0.1 uM [Nanosyn]

>  <BAO Format ID>  (552) 
BAO_0000357

>  <BAO Label>  (552) 
single protein format

>  <Assay Organism>  (552) 
None

>  <Target ChEMBL ID>  (552) 
CHEMBL4247

>  <Target Name>  (552) 
ALK tyrosine kinase receptor

>  <Target Organism>  (552) 
Homo sapiens

>  <Target Type>  (552) 
SINGLE PROTEIN

>  <Document ChEMBL ID>  (552) 
CHEMBL1961873

>  <Source Description>  (552) 
GSK Published Kinase Inhibitor Set

>  <Document Journal>  (552) 
nan

>  <Document Year>  (552) 
nan

>  <Active>  (552) 
0.0

>  <bits>  (552) 
<rdkit.DataStructs.cDataStructs.ExplicitBitVect object at 0x000002422F1A8A50>

>  <Group>  (552) 
G2

$$$$

     RDKit          2D

 36 40  0  0  0  0  0  0  0  0999 V2000
   -2.0143    8.6263    0.0000 C   0  0  0  0  0  0  0  0  0  0  0  0
   -3.4408    8.1628    0.0000 C   0  0  0  0  0  0  0  0  0  0  0  0
   -3.7527    6.6955    0.0000 C   0  0  0  0  0  0  0  0  0  0  0  0
   -2.6380    5.6918    0.0000 C   0  0  0  0  0  0  0  0  0  0  0  0
   -1.2114    6.1554    0.0000 O   0  0  0  0  0  0  0  0  0  0  0  0
   -2.9499    4.2246    0.0000 N   0  0  0  0  0  0  0  0  0  0  0  0
   -1.8351    3.2209    0.0000 C   0  0  0  0  0  0  0  0  0  0  0  0
   -0.4086    3.6844    0.0000 C   0  0  0  0  0  0  0  0  0  0  0  0
    0.7062    2.6807    0.0000 C   0  0  0  0  0  0  0  0  0  0  0  0
    0.3943    1.2135    0.0000 C   0  0  0  0  0  0  0  0  0  0  0  0
    1.2760    0.0000    0.0000 N   0  0  0  0  0  0  0  0  0  0  0  0
    0.3943   -1.2135    0.0000 N   0  0  0  0  0  0  0  0  0  0  0  0
   -1.0323   -0.7500    0.0000 C   0  0  0  0  0  0  0  0  0  0  0  0
   -1.0323    0.7500    0.0000 C   0  0  0  0  0  0  0  0  0  0  0  0
   -2.1470    1.7537    0.0000 C   0  0  0  0  0  0  0  0  0  0  0  0
   -5.1793    6.2320    0.0000 C   0  0  0  0  0  0  0  0  0  0  0  0
   -5.4912    4.7648    0.0000 C   0  0  0  0  0  0  0  0  0  0  0  0
   -6.9177    4.3013    0.0000 C   0  0  0  0  0  0  0  0  0  0  0  0
   -7.2296    2.8340    0.0000 C   0  0  0  0  0  0  0  0  0  0  0  0
   -6.1149    1.8303    0.0000 C   0  0  0  0  0  0  0  0  0  0  0  0
   -6.4268    0.3631    0.0000 F   0  0  0  0  0  0  0  0  0  0  0  0
   -4.6883    2.2939    0.0000 C   0  0  0  0  0  0  0  0  0  0  0  0
   -4.3764    3.7611    0.0000 C   0  0  0  0  0  0  0  0  0  0  0  0
   -6.2940    7.2357    0.0000 N   0  0  0  0  0  0  0  0  0  0  0  0
   -5.9821    8.7029    0.0000 C   0  0  0  0  0  0  0  0  0  0  0  0
   -7.0969    9.7066    0.0000 C   0  0  0  0  0  0  0  0  0  0  0  0
   -6.7850   11.1738    0.0000 C   0  0  0  0  0  0  0  0  0  0  0  0
   -7.8997   12.1775    0.0000 C   0  0  0  0  0  0  0  0  0  0  0  0
   -9.3263   11.7140    0.0000 C   0  0  0  0  0  0  0  0  0  0  0  0
  -10.4410   12.7177    0.0000 C   0  0  0  0  0  0  0  0  0  0  0  0
  -11.5557   13.7214    0.0000 F   0  0  0  0  0  0  0  0  0  0  0  0
   -9.4373   13.8324    0.0000 F   0  0  0  0  0  0  0  0  0  0  0  0
  -11.4447   11.6030    0.0000 F   0  0  0  0  0  0  0  0  0  0  0  0
   -9.6382   10.2468    0.0000 N   0  0  0  0  0  0  0  0  0  0  0  0
   -8.5234    9.2431    0.0000 C   0  0  0  0  0  0  0  0  0  0  0  0
   -4.5556    9.1664    0.0000 N   0  0  0  0  0  0  0  0  0  0  0  0
  1  2  1  0
  2  3  2  0
  3  4  1  0
  4  5  2  0
  4  6  1  0
  6  7  1  0
  7  8  2  0
  8  9  1  0
  9 10  2  0
 10 11  1  0
 11 12  1  0
 12 13  2  0
 13 14  1  0
 14 15  2  0
  3 16  1  0
 16 17  1  0
 17 18  2  0
 18 19  1  0
 19 20  2  0
 20 21  1  0
 20 22  1  0
 22 23  2  0
 16 24  1  0
 24 25  2  0
 25 26  1  0
 26 27  2  0
 27 28  1  0
 28 29  2  0
 29 30  1  0
 30 31  1  0
 30 32  1  0
 30 33  1  0
 29 34  1  0
 34 35  2  0
 25 36  1  0
 36  2  1  0
 15  7  1  0
 23 17  1  0
 35 26  1  0
 14 10  1  0
M  END
>  <Compound_ID>  (553) 
CHEMBL485598

>  <Molecule Name>  (553) 
GSK-317354A

>  <Molecular Weight>  (553) 
494.45

>  <AlogP>  (553) 
5.12

>  <Smiles>  (553) 
CC1=C(C(=O)Nc2ccc3[nH]ncc3c2)C(c2ccc(F)cc2)N=C(c2ccc(C(F)(F)F)nc2)N1

>  <Standard Type>  (553) 
Inhibition

>  <Standard Relation>  (553) 
'='

>  <Standard Units>  (553) 
%

>  <Standard Value>  (553) 
4.29

>  <Assay ChEMBL ID>  (553) 
CHEMBL1962241

>  <Assay Description>  (553) 
GSK_PKIS: ALK mean inhibition at 1 uM [Nanosyn]

>  <BAO Format ID>  (553) 
BAO_0000357

>  <BAO Label>  (553) 
single protein format

>  <Assay Organism>  (553) 
None

>  <Target ChEMBL ID>  (553) 
CHEMBL4247

>  <Target Name>  (553) 
ALK tyrosine kinase receptor

>  <Target Organism>  (553) 
Homo sapiens

>  <Target Type>  (553) 
SINGLE PROTEIN

>  <Document ChEMBL ID>  (553) 
CHEMBL1961873

>  <Source Description>  (553) 
GSK Published Kinase Inhibitor Set

>  <Document Journal>  (553) 
nan

>  <Document Year>  (553) 
nan

>  <Active>  (553) 
0.0

>  <bits>  (553) 
<rdkit.DataStructs.cDataStructs.ExplicitBitVect object at 0x000002422F1A8430>

>  <Group>  (553) 
G2

$$$$

     RDKit          2D

 46 51  0  0  0  0  0  0  0  0999 V2000
    4.5000    0.0000    0.0000 C   0  0  0  0  0  0  0  0  0  0  0  0
    3.0000    0.0000    0.0000 S   0  0  0  0  0  0  0  0  0  0  0  0
    3.0000    1.5000    0.0000 O   0  0  0  0  0  0  0  0  0  0  0  0
    3.0000   -1.5000    0.0000 O   0  0  0  0  0  0  0  0  0  0  0  0
    1.5000    0.0000    0.0000 C   0  0  0  0  0  0  0  0  0  0  0  0
    0.7500   -1.2990    0.0000 C   0  0  0  0  0  0  0  0  0  0  0  0
   -0.7500   -1.2990    0.0000 C   0  0  0  0  0  0  0  0  0  0  0  0
   -1.5000    0.0000    0.0000 C   0  0  0  0  0  0  0  0  0  0  0  0
   -0.7500    1.2990    0.0000 C   0  0  0  0  0  0  0  0  0  0  0  0
   -1.5000    2.5981    0.0000 N   0  0  0  0  0  0  0  0  0  0  0  0
   -0.7500    3.8971    0.0000 C   0  0  0  0  0  0  0  0  0  0  0  0
    0.7500    3.8971    0.0000 N   0  0  0  0  0  0  0  0  0  0  0  0
    1.5000    5.1962    0.0000 C   0  0  0  0  0  0  0  0  0  0  0  0
    0.7500    6.4952    0.0000 C   0  0  0  0  0  0  0  0  0  0  0  0
   -0.7500    6.4952    0.0000 C   0  0  0  0  0  0  0  0  0  0  0  0
   -1.5000    7.7942    0.0000 C   0  0  0  0  0  0  0  0  0  0  0  0
   -2.9918    7.9510    0.0000 S   0  0  0  0  0  0  0  0  0  0  0  0
   -3.3037    9.4182    0.0000 C   0  0  0  0  0  0  0  0  0  0  0  0
   -4.6740   10.0283    0.0000 N   0  0  0  0  0  0  0  0  0  0  0  0
   -4.8308   11.5201    0.0000 C   0  0  0  0  0  0  0  0  0  0  0  0
   -6.2011   12.1302    0.0000 C   0  0  0  0  0  0  0  0  0  0  0  0
   -7.4146   11.2486    0.0000 O   0  0  0  0  0  0  0  0  0  0  0  0
   -7.2578    9.7568    0.0000 C   0  0  0  0  0  0  0  0  0  0  0  0
   -5.8875    9.1467    0.0000 C   0  0  0  0  0  0  0  0  0  0  0  0
   -2.0046   10.1682    0.0000 N   0  0  0  0  0  0  0  0  0  0  0  0
   -0.8899    9.1645    0.0000 C   0  0  0  0  0  0  0  0  0  0  0  0
    0.5773    9.4764    0.0000 C   0  0  0  0  0  0  0  0  0  0  0  0
    1.5810    8.3617    0.0000 C   0  0  0  0  0  0  0  0  0  0  0  0
    3.0482    8.6736    0.0000 C   0  0  0  0  0  0  0  0  0  0  0  0
    3.5118   10.1001    0.0000 C   0  0  0  0  0  0  0  0  0  0  0  0
    2.5081   11.2149    0.0000 C   0  0  0  0  0  0  0  0  0  0  0  0
    2.9716   12.6415    0.0000 N   0  0  0  0  0  0  0  0  0  0  0  0
    4.4388   12.9533    0.0000 S   0  0  0  0  0  0  0  0  0  0  0  0
    4.7507   11.4861    0.0000 O   0  0  0  0  0  0  0  0  0  0  0  0
    4.1270   14.4205    0.0000 O   0  0  0  0  0  0  0  0  0  0  0  0
    5.9060   13.2652    0.0000 C   0  0  0  0  0  0  0  0  0  0  0  0
    6.9097   12.1505    0.0000 C   0  0  0  0  0  0  0  0  0  0  0  0
    6.4462   10.7239    0.0000 F   0  0  0  0  0  0  0  0  0  0  0  0
    8.3770   12.4623    0.0000 C   0  0  0  0  0  0  0  0  0  0  0  0
    8.8405   13.8889    0.0000 C   0  0  0  0  0  0  0  0  0  0  0  0
    7.8368   15.0036    0.0000 C   0  0  0  0  0  0  0  0  0  0  0  0
    6.3696   14.6918    0.0000 C   0  0  0  0  0  0  0  0  0  0  0  0
    5.3659   15.8065    0.0000 F   0  0  0  0  0  0  0  0  0  0  0  0
    1.0409   10.9030    0.0000 C   0  0  0  0  0  0  0  0  0  0  0  0
   -1.5000    5.1962    0.0000 N   0  0  0  0  0  0  0  0  0  0  0  0
    0.7500    1.2990    0.0000 C   0  0  0  0  0  0  0  0  0  0  0  0
  1  2  1  0
  2  3  2  0
  2  4  2  0
  2  5  1  0
  5  6  2  0
  6  7  1  0
  7  8  2  0
  8  9  1  0
  9 10  1  0
 10 11  1  0
 11 12  2  0
 12 13  1  0
 13 14  2  0
 14 15  1  0
 15 16  1  0
 16 17  1  0
 17 18  1  0
 18 19  1  0
 19 20  1  0
 20 21  1  0
 21 22  1  0
 22 23  1  0
 23 24  1  0
 18 25  2  0
 25 26  1  0
 26 27  1  0
 27 28  2  0
 28 29  1  0
 29 30  2  0
 30 31  1  0
 31 32  1  0
 32 33  1  0
 33 34  2  0
 33 35  2  0
 33 36  1  0
 36 37  2  0
 37 38  1  0
 37 39  1  0
 39 40  2  0
 40 41  1  0
 41 42  2  0
 42 43  1  0
 31 44  2  0
 15 45  2  0
  9 46  2  0
 46  5  1  0
 45 11  1  0
 26 16  2  0
 44 27  1  0
 24 19  1  0
 42 36  1  0
M  END
>  <Compound_ID>  (554) 
CHEMBL3628627

>  <Molecule Name>  (554) 
nan

>  <Molecular Weight>  (554) 
684.77

>  <AlogP>  (554) 
5.33

>  <Smiles>  (554) 
CS(=O)(=O)c1cccc(Nc2nccc(-c3sc(N4CCOCC4)nc3-c3cccc(NS(=O)(=O)c4c(F)cccc4F)c3)n2)c1

>  <Standard Type>  (554) 
Inhibition

>  <Standard Relation>  (554) 
'='

>  <Standard Units>  (554) 
%

>  <Standard Value>  (554) 
6.1

>  <Assay ChEMBL ID>  (554) 
CHEMBL3631718

>  <Assay Description>  (554) 
Inhibition of ALK (unknown origin) at 10 uM after 120 mins P33 radiolabeled kinase activity assay

>  <BAO Format ID>  (554) 
BAO_0000357

>  <BAO Label>  (554) 
single protein format

>  <Assay Organism>  (554) 
Homo sapiens

>  <Target ChEMBL ID>  (554) 
CHEMBL4247

>  <Target Name>  (554) 
ALK tyrosine kinase receptor

>  <Target Organism>  (554) 
Homo sapiens

>  <Target Type>  (554) 
SINGLE PROTEIN

>  <Document ChEMBL ID>  (554) 
CHEMBL3627608

>  <Source Description>  (554) 
Scientific Literature

>  <Document Journal>  (554) 
Bioorg Med Chem

>  <Document Year>  (554) 
2015.0

>  <Active>  (554) 
0.0

>  <bits>  (554) 
<rdkit.DataStructs.cDataStructs.ExplicitBitVect object at 0x000002422F1A95B0>

>  <Group>  (554) 
G2

$$$$

     RDKit          2D

 29 32  0  0  0  0  0  0  0  0999 V2000
    3.0000    0.0000    0.0000 C   0  0  0  0  0  0  0  0  0  0  0  0
    1.5000    0.0000    0.0000 N   0  0  0  0  0  0  0  0  0  0  0  0
    0.7500   -1.2990    0.0000 C   0  0  0  0  0  0  0  0  0  0  0  0
   -0.7500   -1.2990    0.0000 C   0  0  0  0  0  0  0  0  0  0  0  0
   -1.5000    0.0000    0.0000 C   0  0  0  0  0  0  0  0  0  0  0  0
   -3.0000    0.0000    0.0000 N   0  0  0  0  0  0  0  0  0  0  0  0
   -3.8817   -1.2135    0.0000 C   0  0  0  0  0  0  0  0  0  0  0  0
   -5.3083   -0.7500    0.0000 N   0  0  0  0  0  0  0  0  0  0  0  0
   -5.3083    0.7500    0.0000 C   0  0  0  0  0  0  0  0  0  0  0  0
   -6.5218    1.6317    0.0000 C   0  0  0  0  0  0  0  0  0  0  0  0
   -6.3650    3.1235    0.0000 C   0  0  0  0  0  0  0  0  0  0  0  0
   -7.5785    4.0051    0.0000 C   0  0  0  0  0  0  0  0  0  0  0  0
   -8.9488    3.3950    0.0000 C   0  0  0  0  0  0  0  0  0  0  0  0
  -10.1624    4.2767    0.0000 F   0  0  0  0  0  0  0  0  0  0  0  0
   -9.1056    1.9033    0.0000 C   0  0  0  0  0  0  0  0  0  0  0  0
   -7.8921    1.0216    0.0000 C   0  0  0  0  0  0  0  0  0  0  0  0
   -3.8817    1.2135    0.0000 C   0  0  0  0  0  0  0  0  0  0  0  0
   -3.4182    2.6401    0.0000 C   0  0  0  0  0  0  0  0  0  0  0  0
   -1.9509    2.9520    0.0000 C   0  0  0  0  0  0  0  0  0  0  0  0
   -1.4874    4.3786    0.0000 C   0  0  0  0  0  0  0  0  0  0  0  0
   -2.4911    5.4933    0.0000 N   0  0  0  0  0  0  0  0  0  0  0  0
   -3.9583    5.1814    0.0000 C   0  0  0  0  0  0  0  0  0  0  0  0
   -4.9620    6.2961    0.0000 N   0  0  0  0  0  0  0  0  0  0  0  0
   -4.4985    7.7227    0.0000 C   0  0  0  0  0  0  0  0  0  0  0  0
   -5.5022    8.8374    0.0000 C   0  0  0  0  0  0  0  0  0  0  0  0
   -5.0387   10.2640    0.0000 O   0  0  0  0  0  0  0  0  0  0  0  0
   -4.4218    3.7548    0.0000 N   0  0  0  0  0  0  0  0  0  0  0  0
   -0.7500    1.2990    0.0000 C   0  0  0  0  0  0  0  0  0  0  0  0
    0.7500    1.2990    0.0000 C   0  0  0  0  0  0  0  0  0  0  0  0
  1  2  1  0
  2  3  1  0
  3  4  1  0
  4  5  1  0
  5  6  1  0
  6  7  1  0
  7  8  2  0
  8  9  1  0
  9 10  1  0
 10 11  2  0
 11 12  1  0
 12 13  2  0
 13 14  1  0
 13 15  1  0
 15 16  2  0
  9 17  2  0
 17 18  1  0
 18 19  2  0
 19 20  1  0
 20 21  2  0
 21 22  1  0
 22 23  1  0
 23 24  1  0
 24 25  1  0
 25 26  1  0
 22 27  2  0
  5 28  1  0
 28 29  1  0
 29  2  1  0
 17  6  1  0
 27 18  1  0
 16 10  1  0
M  END
>  <Compound_ID>  (555) 
CHEMBL330422

>  <Molecule Name>  (555) 
nan

>  <Molecular Weight>  (555) 
396.47

>  <AlogP>  (555) 
2.82

>  <Smiles>  (555) 
CN1CCC(n2cnc(-c3ccc(F)cc3)c2-c2ccnc(NCCO)n2)CC1

>  <Standard Type>  (555) 
Inhibition

>  <Standard Relation>  (555) 
'='

>  <Standard Units>  (555) 
%

>  <Standard Value>  (555) 
3.71

>  <Assay ChEMBL ID>  (555) 
CHEMBL1962240

>  <Assay Description>  (555) 
GSK_PKIS: ALK mean inhibition at 0.1 uM [Nanosyn]

>  <BAO Format ID>  (555) 
BAO_0000357

>  <BAO Label>  (555) 
single protein format

>  <Assay Organism>  (555) 
None

>  <Target ChEMBL ID>  (555) 
CHEMBL4247

>  <Target Name>  (555) 
ALK tyrosine kinase receptor

>  <Target Organism>  (555) 
Homo sapiens

>  <Target Type>  (555) 
SINGLE PROTEIN

>  <Document ChEMBL ID>  (555) 
CHEMBL1961873

>  <Source Description>  (555) 
GSK Published Kinase Inhibitor Set

>  <Document Journal>  (555) 
nan

>  <Document Year>  (555) 
nan

>  <Active>  (555) 
0.0

>  <bits>  (555) 
<rdkit.DataStructs.cDataStructs.ExplicitBitVect object at 0x000002422F1A91C0>

>  <Group>  (555) 
G2

$$$$

     RDKit          2D

 35 39  0  0  0  0  0  0  0  0999 V2000
    3.7500   -1.2990    0.0000 C   0  0  0  0  0  0  0  0  0  0  0  0
    3.0000    0.0000    0.0000 O   0  0  0  0  0  0  0  0  0  0  0  0
    1.5000    0.0000    0.0000 C   0  0  0  0  0  0  0  0  0  0  0  0
    0.7500   -1.2990    0.0000 C   0  0  0  0  0  0  0  0  0  0  0  0
   -0.7500   -1.2990    0.0000 C   0  0  0  0  0  0  0  0  0  0  0  0
   -1.5000    0.0000    0.0000 C   0  0  0  0  0  0  0  0  0  0  0  0
   -3.0000    0.0000    0.0000 C   0  0  0  0  0  0  0  0  0  0  0  0
   -3.7500    1.2990    0.0000 C   0  0  0  0  0  0  0  0  0  0  0  0
   -5.2500    1.2990    0.0000 C   0  0  0  0  0  0  0  0  0  0  0  0
   -6.1317    0.0855    0.0000 C   0  0  0  0  0  0  0  0  0  0  0  0
   -5.6682   -1.3411    0.0000 C   0  0  0  0  0  0  0  0  0  0  0  0
   -6.6718   -2.4558    0.0000 C   0  0  0  0  0  0  0  0  0  0  0  0
   -6.2083   -3.8824    0.0000 C   0  0  0  0  0  0  0  0  0  0  0  0
   -4.7411   -4.1942    0.0000 N   0  0  0  0  0  0  0  0  0  0  0  0
   -3.7374   -3.0795    0.0000 C   0  0  0  0  0  0  0  0  0  0  0  0
   -4.2009   -1.6529    0.0000 C   0  0  0  0  0  0  0  0  0  0  0  0
   -7.5583    0.5490    0.0000 N   0  0  0  0  0  0  0  0  0  0  0  0
   -7.5583    2.0490    0.0000 C   0  0  0  0  0  0  0  0  0  0  0  0
   -8.7718    2.9307    0.0000 C   0  0  0  0  0  0  0  0  0  0  0  0
   -8.6150    4.4225    0.0000 C   0  0  0  0  0  0  0  0  0  0  0  0
   -9.8285    5.3042    0.0000 C   0  0  0  0  0  0  0  0  0  0  0  0
  -11.1988    4.6941    0.0000 C   0  0  0  0  0  0  0  0  0  0  0  0
  -12.4124    5.5757    0.0000 S   0  0  0  0  0  0  0  0  0  0  0  0
  -13.6259    6.4574    0.0000 C   0  0  0  0  0  0  0  0  0  0  0  0
  -13.2940    4.3622    0.0000 O   0  0  0  0  0  0  0  0  0  0  0  0
  -11.5307    6.7893    0.0000 O   0  0  0  0  0  0  0  0  0  0  0  0
  -11.3556    3.2023    0.0000 C   0  0  0  0  0  0  0  0  0  0  0  0
  -10.1421    2.3206    0.0000 C   0  0  0  0  0  0  0  0  0  0  0  0
  -10.2989    0.8288    0.0000 C   0  0  0  0  0  0  0  0  0  0  0  0
   -6.1317    2.5126    0.0000 N   0  0  0  0  0  0  0  0  0  0  0  0
   -5.6682    3.9391    0.0000 C   0  0  0  0  0  0  0  0  0  0  0  0
   -3.0000    2.5981    0.0000 C   0  0  0  0  0  0  0  0  0  0  0  0
   -1.5000    2.5981    0.0000 C   0  0  0  0  0  0  0  0  0  0  0  0
   -0.7500    1.2990    0.0000 C   0  0  0  0  0  0  0  0  0  0  0  0
    0.7500    1.2990    0.0000 C   0  0  0  0  0  0  0  0  0  0  0  0
  1  2  1  0
  2  3  1  0
  3  4  2  0
  4  5  1  0
  5  6  2  0
  6  7  1  0
  7  8  2  0
  8  9  1  0
  9 10  2  0
 10 11  1  0
 11 12  2  0
 12 13  1  0
 13 14  2  0
 14 15  1  0
 15 16  2  0
 10 17  1  0
 17 18  2  0
 18 19  1  0
 19 20  2  0
 20 21  1  0
 21 22  2  0
 22 23  1  0
 23 24  1  0
 23 25  2  0
 23 26  2  0
 22 27  1  0
 27 28  2  0
 28 29  1  0
 18 30  1  0
 30 31  1  0
  8 32  1  0
 32 33  2  0
 33 34  1  0
 34 35  2  0
 35  3  1  0
 34  6  1  0
 30  9  1  0
 16 11  1  0
 28 19  1  0
M  END
>  <Compound_ID>  (556) 
CHEMBL237571

>  <Molecule Name>  (556) 
nan

>  <Molecular Weight>  (556) 
483.59

>  <AlogP>  (556) 
5.69

>  <Smiles>  (556) 
COc1ccc2cc(-c3c(-c4ccncc4)nc(-c4ccc(S(C)(=O)=O)cc4C)n3C)ccc2c1

>  <Standard Type>  (556) 
Inhibition

>  <Standard Relation>  (556) 
'='

>  <Standard Units>  (556) 
%

>  <Standard Value>  (556) 
2.91

>  <Assay ChEMBL ID>  (556) 
CHEMBL1962240

>  <Assay Description>  (556) 
GSK_PKIS: ALK mean inhibition at 0.1 uM [Nanosyn]

>  <BAO Format ID>  (556) 
BAO_0000357

>  <BAO Label>  (556) 
single protein format

>  <Assay Organism>  (556) 
None

>  <Target ChEMBL ID>  (556) 
CHEMBL4247

>  <Target Name>  (556) 
ALK tyrosine kinase receptor

>  <Target Organism>  (556) 
Homo sapiens

>  <Target Type>  (556) 
SINGLE PROTEIN

>  <Document ChEMBL ID>  (556) 
CHEMBL1961873

>  <Source Description>  (556) 
GSK Published Kinase Inhibitor Set

>  <Document Journal>  (556) 
nan

>  <Document Year>  (556) 
nan

>  <Active>  (556) 
0.0

>  <bits>  (556) 
<rdkit.DataStructs.cDataStructs.ExplicitBitVect object at 0x000002422F1A86D0>

>  <Group>  (556) 
G2

$$$$

     RDKit          2D

 27 29  0  0  0  0  0  0  0  0999 V2000
    3.7500   -1.2990    0.0000 C   0  0  0  0  0  0  0  0  0  0  0  0
    3.0000    0.0000    0.0000 O   0  0  0  0  0  0  0  0  0  0  0  0
    1.5000    0.0000    0.0000 C   0  0  0  0  0  0  0  0  0  0  0  0
    0.7500   -1.2990    0.0000 C   0  0  0  0  0  0  0  0  0  0  0  0
   -0.7500   -1.2990    0.0000 C   0  0  0  0  0  0  0  0  0  0  0  0
   -1.5000    0.0000    0.0000 C   0  0  0  0  0  0  0  0  0  0  0  0
   -3.0000    0.0000    0.0000 C   0  0  0  0  0  0  0  0  0  0  0  0
   -3.7500    1.2990    0.0000 O   0  0  0  0  0  0  0  0  0  0  0  0
   -5.2500    1.2990    0.0000 C   0  0  0  0  0  0  0  0  0  0  0  0
   -6.0000    2.5981    0.0000 C   0  0  0  0  0  0  0  0  0  0  0  0
   -7.5000    2.5981    0.0000 C   0  0  0  0  0  0  0  0  0  0  0  0
   -8.2500    1.2990    0.0000 C   0  0  0  0  0  0  0  0  0  0  0  0
   -9.7500    1.2990    0.0000 C   0  0  0  0  0  0  0  0  0  0  0  0
  -10.5000    2.5981    0.0000 C   0  0  0  0  0  0  0  0  0  0  0  0
   -9.7500    3.8971    0.0000 C   0  0  0  0  0  0  0  0  0  0  0  0
  -10.5000    5.1962    0.0000 N   0  0  0  0  0  0  0  0  0  0  0  0
  -12.0000    5.1962    0.0000 C   0  0  0  0  0  0  0  0  0  0  0  0
  -12.7500    6.4952    0.0000 N   0  0  0  0  0  0  0  0  0  0  0  0
  -12.7500    3.8971    0.0000 N   0  0  0  0  0  0  0  0  0  0  0  0
  -12.0000    2.5981    0.0000 C   0  0  0  0  0  0  0  0  0  0  0  0
  -12.7500    1.2990    0.0000 N   0  0  0  0  0  0  0  0  0  0  0  0
   -7.5000    0.0000    0.0000 C   0  0  0  0  0  0  0  0  0  0  0  0
   -6.0000    0.0000    0.0000 C   0  0  0  0  0  0  0  0  0  0  0  0
   -5.2500   -1.2990    0.0000 O   0  0  0  0  0  0  0  0  0  0  0  0
   -6.0000   -2.5981    0.0000 C   0  0  0  0  0  0  0  0  0  0  0  0
   -0.7500    1.2990    0.0000 C   0  0  0  0  0  0  0  0  0  0  0  0
    0.7500    1.2990    0.0000 C   0  0  0  0  0  0  0  0  0  0  0  0
  1  2  1  0
  2  3  1  0
  3  4  2  0
  4  5  1  0
  5  6  2  0
  6  7  1  0
  7  8  1  0
  8  9  1  0
  9 10  2  0
 10 11  1  0
 11 12  2  0
 12 13  1  0
 13 14  1  0
 14 15  2  0
 15 16  1  0
 16 17  2  0
 17 18  1  0
 17 19  1  0
 19 20  2  0
 20 21  1  0
 12 22  1  0
 22 23  2  0
 23 24  1  0
 24 25  1  0
  6 26  1  0
 26 27  2  0
 27  3  1  0
 23  9  1  0
 20 14  1  0
M  END
>  <Compound_ID>  (557) 
CHEMBL261849

>  <Molecule Name>  (557) 
GW632580X

>  <Molecular Weight>  (557) 
366.42

>  <AlogP>  (557) 
2.83

>  <Smiles>  (557) 
COc1ccc(COc2ccc(Cc3cnc(N)nc3N)cc2OC)cc1

>  <Standard Type>  (557) 
Inhibition

>  <Standard Relation>  (557) 
'='

>  <Standard Units>  (557) 
%

>  <Standard Value>  (557) 
-0.54

>  <Assay ChEMBL ID>  (557) 
CHEMBL1962240

>  <Assay Description>  (557) 
GSK_PKIS: ALK mean inhibition at 0.1 uM [Nanosyn]

>  <BAO Format ID>  (557) 
BAO_0000357

>  <BAO Label>  (557) 
single protein format

>  <Assay Organism>  (557) 
None

>  <Target ChEMBL ID>  (557) 
CHEMBL4247

>  <Target Name>  (557) 
ALK tyrosine kinase receptor

>  <Target Organism>  (557) 
Homo sapiens

>  <Target Type>  (557) 
SINGLE PROTEIN

>  <Document ChEMBL ID>  (557) 
CHEMBL1961873

>  <Source Description>  (557) 
GSK Published Kinase Inhibitor Set

>  <Document Journal>  (557) 
nan

>  <Document Year>  (557) 
nan

>  <Active>  (557) 
0.0

>  <bits>  (557) 
<rdkit.DataStructs.cDataStructs.ExplicitBitVect object at 0x000002422F1A84A0>

>  <Group>  (557) 
G2

$$$$

     RDKit          2D

 22 25  0  0  0  0  0  0  0  0999 V2000
   -3.7701    2.1590    0.0000 C   0  0  0  0  0  0  0  0  0  0  0  0
   -4.0819    0.6918    0.0000 C   0  0  0  0  0  0  0  0  0  0  0  0
   -2.9672   -0.3119    0.0000 N   0  0  0  0  0  0  0  0  0  0  0  0
   -3.1240   -1.8037    0.0000 C   0  0  0  0  0  0  0  0  0  0  0  0
   -4.4231   -2.5537    0.0000 C   0  0  0  0  0  0  0  0  0  0  0  0
   -4.5798   -4.0454    0.0000 N   0  0  0  0  0  0  0  0  0  0  0  0
   -6.0471   -4.3573    0.0000 O   0  0  0  0  0  0  0  0  0  0  0  0
   -6.7971   -3.0583    0.0000 N   0  0  0  0  0  0  0  0  0  0  0  0
   -5.7934   -1.9435    0.0000 C   0  0  0  0  0  0  0  0  0  0  0  0
   -6.1052   -0.4763    0.0000 N   0  0  0  0  0  0  0  0  0  0  0  0
   -1.7537   -2.4138    0.0000 N   0  0  0  0  0  0  0  0  0  0  0  0
   -0.7500   -1.2990    0.0000 C   0  0  0  0  0  0  0  0  0  0  0  0
    0.7500   -1.2990    0.0000 C   0  0  0  0  0  0  0  0  0  0  0  0
    1.5000   -2.5981    0.0000 N   0  0  0  0  0  0  0  0  0  0  0  0
    2.9918   -2.7549    0.0000 C   0  0  0  0  0  0  0  0  0  0  0  0
    3.3037   -4.2221    0.0000 C   0  0  0  0  0  0  0  0  0  0  0  0
    2.0046   -4.9721    0.0000 C   0  0  0  0  0  0  0  0  0  0  0  0
    0.8899   -3.9684    0.0000 C   0  0  0  0  0  0  0  0  0  0  0  0
    1.5000    0.0000    0.0000 N   0  0  0  0  0  0  0  0  0  0  0  0
    0.7500    1.2990    0.0000 C   0  0  0  0  0  0  0  0  0  0  0  0
   -0.7500    1.2990    0.0000 C   0  0  0  0  0  0  0  0  0  0  0  0
   -1.5000    0.0000    0.0000 C   0  0  0  0  0  0  0  0  0  0  0  0
  1  2  1  0
  2  3  1  0
  3  4  1  0
  4  5  1  0
  5  6  2  0
  6  7  1  0
  7  8  1  0
  8  9  2  0
  9 10  1  0
  4 11  2  0
 11 12  1  0
 12 13  2  0
 13 14  1  0
 14 15  1  0
 15 16  1  0
 16 17  1  0
 17 18  1  0
 13 19  1  0
 19 20  2  0
 20 21  1  0
 21 22  2  0
 22  3  1  0
  9  5  1  0
 22 12  1  0
 18 14  1  0
M  END
>  <Compound_ID>  (558) 
CHEMBL187985

>  <Molecule Name>  (558) 
nan

>  <Molecular Weight>  (558) 
299.34

>  <AlogP>  (558) 
1.68

>  <Smiles>  (558) 
CCn1c(-c2nonc2N)nc2c(N3CCCC3)nccc21

>  <Standard Type>  (558) 
Inhibition

>  <Standard Relation>  (558) 
'='

>  <Standard Units>  (558) 
%

>  <Standard Value>  (558) 
-1.38

>  <Assay ChEMBL ID>  (558) 
CHEMBL1962240

>  <Assay Description>  (558) 
GSK_PKIS: ALK mean inhibition at 0.1 uM [Nanosyn]

>  <BAO Format ID>  (558) 
BAO_0000357

>  <BAO Label>  (558) 
single protein format

>  <Assay Organism>  (558) 
None

>  <Target ChEMBL ID>  (558) 
CHEMBL4247

>  <Target Name>  (558) 
ALK tyrosine kinase receptor

>  <Target Organism>  (558) 
Homo sapiens

>  <Target Type>  (558) 
SINGLE PROTEIN

>  <Document ChEMBL ID>  (558) 
CHEMBL1961873

>  <Source Description>  (558) 
GSK Published Kinase Inhibitor Set

>  <Document Journal>  (558) 
nan

>  <Document Year>  (558) 
nan

>  <Active>  (558) 
0.0

>  <bits>  (558) 
<rdkit.DataStructs.cDataStructs.ExplicitBitVect object at 0x000002422F1A9700>

>  <Group>  (558) 
G2

$$$$

     RDKit          2D

 22 23  0  0  0  0  0  0  0  0999 V2000
    3.7500   -1.2990    0.0000 C   0  0  0  0  0  0  0  0  0  0  0  0
    3.0000    0.0000    0.0000 C   0  0  0  0  0  0  0  0  0  0  0  0
    1.5000    0.0000    0.0000 C   0  0  0  0  0  0  0  0  0  0  0  0
    0.7500   -1.2990    0.0000 C   0  0  0  0  0  0  0  0  0  0  0  0
   -0.7500   -1.2990    0.0000 C   0  0  0  0  0  0  0  0  0  0  0  0
   -1.5000    0.0000    0.0000 C   0  0  0  0  0  0  0  0  0  0  0  0
   -0.7500    1.2990    0.0000 C   0  0  0  0  0  0  0  0  0  0  0  0
   -1.5000    2.5981    0.0000 C   0  0  0  0  0  0  0  0  0  0  0  0
   -0.7500    3.8971    0.0000 C   0  0  0  0  0  0  0  0  0  0  0  0
    0.7500    1.2990    0.0000 C   0  0  0  0  0  0  0  0  0  0  0  0
    1.5000    2.5981    0.0000 C   0  0  0  0  0  0  0  0  0  0  0  0
    3.0000    2.5981    0.0000 C   0  0  0  0  0  0  0  0  0  0  0  0
    3.7500    3.8971    0.0000 C   0  0  0  0  0  0  0  0  0  0  0  0
    5.2500    3.8971    0.0000 C   0  0  0  0  0  0  0  0  0  0  0  0
    6.0000    5.1962    0.0000 N   0  0  0  0  0  0  0  0  0  0  0  0
    5.2500    6.4952    0.0000 C   0  0  0  0  0  0  0  0  0  0  0  0
    3.7500    6.4952    0.0000 C   0  0  0  0  0  0  0  0  0  0  0  0
    3.0000    7.7942    0.0000 C   0  0  0  0  0  0  0  0  0  0  0  0
    1.5000    7.7942    0.0000 O   0  0  0  0  0  0  0  0  0  0  0  0
    3.7500    9.0933    0.0000 N   0  0  0  0  0  0  0  0  0  0  0  0
    3.0000   10.3923    0.0000 C   0  0  0  0  0  0  0  0  0  0  0  0
    3.0000    5.1962    0.0000 C   0  0  0  0  0  0  0  0  0  0  0  0
  1  2  1  0
  2  3  1  0
  3  4  2  0
  4  5  1  0
  5  6  2  0
  6  7  1  0
  7  8  1  0
  8  9  1  0
  7 10  2  0
 10 11  1  0
 11 12  2  0
 12 13  1  0
 13 14  2  0
 14 15  1  0
 15 16  2  0
 16 17  1  0
 17 18  1  0
 18 19  2  0
 18 20  1  0
 20 21  1  0
 17 22  2  0
 10  3  1  0
 22 13  1  0
M  END
>  <Compound_ID>  (559) 
CHEMBL385426

>  <Molecule Name>  (559) 
GW450241X

>  <Molecular Weight>  (559) 
294.4

>  <AlogP>  (559) 
3.74

>  <Smiles>  (559) 
CCc1cccc(CC)c1/C=C/c1cncc(C(=O)NC)c1

>  <Standard Type>  (559) 
Inhibition

>  <Standard Relation>  (559) 
'='

>  <Standard Units>  (559) 
%

>  <Standard Value>  (559) 
2.66

>  <Assay ChEMBL ID>  (559) 
CHEMBL1962240

>  <Assay Description>  (559) 
GSK_PKIS: ALK mean inhibition at 0.1 uM [Nanosyn]

>  <BAO Format ID>  (559) 
BAO_0000357

>  <BAO Label>  (559) 
single protein format

>  <Assay Organism>  (559) 
None

>  <Target ChEMBL ID>  (559) 
CHEMBL4247

>  <Target Name>  (559) 
ALK tyrosine kinase receptor

>  <Target Organism>  (559) 
Homo sapiens

>  <Target Type>  (559) 
SINGLE PROTEIN

>  <Document ChEMBL ID>  (559) 
CHEMBL1961873

>  <Source Description>  (559) 
GSK Published Kinase Inhibitor Set

>  <Document Journal>  (559) 
nan

>  <Document Year>  (559) 
nan

>  <Active>  (559) 
0.0

>  <bits>  (559) 
<rdkit.DataStructs.cDataStructs.ExplicitBitVect object at 0x000002422F1A9690>

>  <Group>  (559) 
G2

$$$$

     RDKit          2D

 39 44  0  0  0  0  0  0  0  0999 V2000
   -0.8087  -14.1104    0.0000 C   0  0  0  0  0  0  0  0  0  0  0  0
   -0.1986  -12.7400    0.0000 N   0  0  0  0  0  0  0  0  0  0  0  0
   -1.0803  -11.5265    0.0000 C   0  0  0  0  0  0  0  0  0  0  0  0
   -0.4702  -10.1562    0.0000 C   0  0  0  0  0  0  0  0  0  0  0  0
    1.0216   -9.9994    0.0000 N   0  0  0  0  0  0  0  0  0  0  0  0
    1.6317   -8.6291    0.0000 C   0  0  0  0  0  0  0  0  0  0  0  0
    0.7500   -7.4156    0.0000 C   0  0  0  0  0  0  0  0  0  0  0  0
   -0.7500   -7.4156    0.0000 C   0  0  0  0  0  0  0  0  0  0  0  0
   -1.2135   -5.9890    0.0000 C   0  0  0  0  0  0  0  0  0  0  0  0
   -0.0000   -5.1073    0.0000 C   0  0  0  0  0  0  0  0  0  0  0  0
   -0.0000   -3.6073    0.0000 C   0  0  0  0  0  0  0  0  0  0  0  0
    1.2135   -2.7256    0.0000 C   0  0  0  0  0  0  0  0  0  0  0  0
    0.7500   -1.2990    0.0000 C   0  0  0  0  0  0  0  0  0  0  0  0
    1.5000    0.0000    0.0000 N   0  0  0  0  0  0  0  0  0  0  0  0
    0.7500    1.2990    0.0000 C   0  0  0  0  0  0  0  0  0  0  0  0
   -0.7500    1.2990    0.0000 N   0  0  0  0  0  0  0  0  0  0  0  0
   -1.5000    0.0000    0.0000 C   0  0  0  0  0  0  0  0  0  0  0  0
   -3.0000    0.0000    0.0000 N   0  0  0  0  0  0  0  0  0  0  0  0
   -3.7500    1.2990    0.0000 C   0  0  0  0  0  0  0  0  0  0  0  0
   -3.0000    2.5981    0.0000 C   0  0  0  0  0  0  0  0  0  0  0  0
   -3.7500    3.8971    0.0000 C   0  0  0  0  0  0  0  0  0  0  0  0
   -5.2500    3.8971    0.0000 C   0  0  0  0  0  0  0  0  0  0  0  0
   -6.0000    5.1962    0.0000 O   0  0  0  0  0  0  0  0  0  0  0  0
   -5.2500    6.4952    0.0000 C   0  0  0  0  0  0  0  0  0  0  0  0
   -6.0000    7.7942    0.0000 C   0  0  0  0  0  0  0  0  0  0  0  0
   -5.2500    9.0933    0.0000 C   0  0  0  0  0  0  0  0  0  0  0  0
   -6.0000   10.3923    0.0000 C   0  0  0  0  0  0  0  0  0  0  0  0
   -7.5000   10.3923    0.0000 C   0  0  0  0  0  0  0  0  0  0  0  0
   -8.2500    9.0933    0.0000 C   0  0  0  0  0  0  0  0  0  0  0  0
   -9.7500    9.0933    0.0000 F   0  0  0  0  0  0  0  0  0  0  0  0
   -7.5000    7.7942    0.0000 C   0  0  0  0  0  0  0  0  0  0  0  0
   -6.0000    2.5981    0.0000 C   0  0  0  0  0  0  0  0  0  0  0  0
   -7.5000    2.5981    0.0000 Cl  0  0  0  0  0  0  0  0  0  0  0  0
   -5.2500    1.2990    0.0000 C   0  0  0  0  0  0  0  0  0  0  0  0
   -0.7500   -1.2990    0.0000 C   0  0  0  0  0  0  0  0  0  0  0  0
   -1.2135   -2.7256    0.0000 S   0  0  0  0  0  0  0  0  0  0  0  0
    1.2135   -5.9890    0.0000 O   0  0  0  0  0  0  0  0  0  0  0  0
    1.9033  -11.2129    0.0000 C   0  0  0  0  0  0  0  0  0  0  0  0
    1.2931  -12.5833    0.0000 C   0  0  0  0  0  0  0  0  0  0  0  0
  1  2  1  0
  2  3  1  0
  3  4  1  0
  4  5  1  0
  5  6  1  0
  6  7  1  0
  7  8  2  0
  8  9  1  0
  9 10  2  0
 10 11  1  0
 11 12  2  0
 12 13  1  0
 13 14  2  0
 14 15  1  0
 15 16  2  0
 16 17  1  0
 17 18  1  0
 18 19  1  0
 19 20  2  0
 20 21  1  0
 21 22  2  0
 22 23  1  0
 23 24  1  0
 24 25  1  0
 25 26  2  0
 26 27  1  0
 27 28  2  0
 28 29  1  0
 29 30  1  0
 29 31  2  0
 22 32  1  0
 32 33  1  0
 32 34  2  0
 17 35  2  0
 35 36  1  0
 10 37  1  0
  5 38  1  0
 38 39  1  0
 39  2  1  0
 37  7  1  0
 36 11  1  0
 35 13  1  0
 34 19  1  0
 31 25  1  0
M  END
>  <Compound_ID>  (560) 
CHEMBL475761

>  <Molecule Name>  (560) 
GW784684X

>  <Molecular Weight>  (560) 
564.09

>  <AlogP>  (560) 
6.81

>  <Smiles>  (560) 
CN1CCN(Cc2ccc(-c3cc4ncnc(Nc5ccc(OCc6cccc(F)c6)c(Cl)c5)c4s3)o2)CC1

>  <Standard Type>  (560) 
Inhibition

>  <Standard Relation>  (560) 
'='

>  <Standard Units>  (560) 
%

>  <Standard Value>  (560) 
2.64

>  <Assay ChEMBL ID>  (560) 
CHEMBL1962240

>  <Assay Description>  (560) 
GSK_PKIS: ALK mean inhibition at 0.1 uM [Nanosyn]

>  <BAO Format ID>  (560) 
BAO_0000357

>  <BAO Label>  (560) 
single protein format

>  <Assay Organism>  (560) 
None

>  <Target ChEMBL ID>  (560) 
CHEMBL4247

>  <Target Name>  (560) 
ALK tyrosine kinase receptor

>  <Target Organism>  (560) 
Homo sapiens

>  <Target Type>  (560) 
SINGLE PROTEIN

>  <Document ChEMBL ID>  (560) 
CHEMBL1961873

>  <Source Description>  (560) 
GSK Published Kinase Inhibitor Set

>  <Document Journal>  (560) 
nan

>  <Document Year>  (560) 
nan

>  <Active>  (560) 
0.0

>  <bits>  (560) 
<rdkit.DataStructs.cDataStructs.ExplicitBitVect object at 0x000002422F1A87B0>

>  <Group>  (560) 
G2

$$$$

     RDKit          2D

 30 34  0  0  0  0  0  0  0  0999 V2000
   -2.6401   -3.1891    0.0000 C   0  0  0  0  0  0  0  0  0  0  0  0
   -1.2135   -2.7256    0.0000 C   0  0  0  0  0  0  0  0  0  0  0  0
   -0.0000   -3.6073    0.0000 N   0  0  0  0  0  0  0  0  0  0  0  0
    1.2135   -2.7256    0.0000 N   0  0  0  0  0  0  0  0  0  0  0  0
    0.7500   -1.2990    0.0000 C   0  0  0  0  0  0  0  0  0  0  0  0
    1.5000    0.0000    0.0000 C   0  0  0  0  0  0  0  0  0  0  0  0
    0.7500    1.2990    0.0000 C   0  0  0  0  0  0  0  0  0  0  0  0
   -0.7500    1.2990    0.0000 C   0  0  0  0  0  0  0  0  0  0  0  0
   -1.5000    2.5981    0.0000 C   0  0  0  0  0  0  0  0  0  0  0  0
   -0.7500    3.8971    0.0000 C   0  0  0  0  0  0  0  0  0  0  0  0
   -1.5000    5.1962    0.0000 N   0  0  0  0  0  0  0  0  0  0  0  0
   -3.0000    5.1962    0.0000 C   0  0  0  0  0  0  0  0  0  0  0  0
   -3.7500    3.8971    0.0000 C   0  0  0  0  0  0  0  0  0  0  0  0
   -5.2500    3.8971    0.0000 O   0  0  0  0  0  0  0  0  0  0  0  0
   -6.0000    5.1962    0.0000 C   0  0  0  0  0  0  0  0  0  0  0  0
   -7.5000    5.1962    0.0000 C   0  0  0  0  0  0  0  0  0  0  0  0
   -8.2500    3.8971    0.0000 N   0  0  0  0  0  0  0  0  0  0  0  0
   -8.2500    6.4952    0.0000 C   0  0  0  0  0  0  0  0  0  0  0  0
   -9.7500    6.4952    0.0000 C   0  0  0  0  0  0  0  0  0  0  0  0
  -10.6317    5.2817    0.0000 C   0  0  0  0  0  0  0  0  0  0  0  0
  -12.0583    5.7452    0.0000 N   0  0  0  0  0  0  0  0  0  0  0  0
  -12.0583    7.2452    0.0000 C   0  0  0  0  0  0  0  0  0  0  0  0
  -13.1730    8.2489    0.0000 C   0  0  0  0  0  0  0  0  0  0  0  0
  -12.8611    9.7161    0.0000 C   0  0  0  0  0  0  0  0  0  0  0  0
  -11.4345   10.1796    0.0000 C   0  0  0  0  0  0  0  0  0  0  0  0
  -10.3198    9.1759    0.0000 C   0  0  0  0  0  0  0  0  0  0  0  0
  -10.6317    7.7087    0.0000 C   0  0  0  0  0  0  0  0  0  0  0  0
   -3.0000    2.5981    0.0000 C   0  0  0  0  0  0  0  0  0  0  0  0
   -1.5000    0.0000    0.0000 C   0  0  0  0  0  0  0  0  0  0  0  0
   -0.7500   -1.2990    0.0000 C   0  0  0  0  0  0  0  0  0  0  0  0
  1  2  1  0
  2  3  2  0
  3  4  1  0
  4  5  1  0
  5  6  2  0
  6  7  1  0
  7  8  2  0
  8  9  1  0
  9 10  2  0
 10 11  1  0
 11 12  2  0
 12 13  1  0
 13 14  1  0
 14 15  1  0
 15 16  1  0
 16 17  1  1
 16 18  1  0
 18 19  1  0
 19 20  2  0
 20 21  1  0
 21 22  1  0
 22 23  2  0
 23 24  1  0
 24 25  2  0
 25 26  1  0
 26 27  2  0
 13 28  2  0
  8 29  1  0
 29 30  2  0
 30  2  1  0
 30  5  1  0
 28  9  1  0
 27 19  1  0
 27 22  1  0
M  END
>  <Compound_ID>  (561) 
CHEMBL379300

>  <Molecule Name>  (561) 
A-443654

>  <Molecular Weight>  (561) 
397.48

>  <AlogP>  (561) 
4.36

>  <Smiles>  (561) 
Cc1n[nH]c2ccc(-c3cncc(OC[C@@H](N)Cc4c[nH]c5ccccc45)c3)cc12

>  <Standard Type>  (561) 
Inhibition

>  <Standard Relation>  (561) 
'='

>  <Standard Units>  (561) 
%

>  <Standard Value>  (561) 
17.0

>  <Assay ChEMBL ID>  (561) 
CHEMBL1251632

>  <Assay Description>  (561) 
Inhibition of ALK at 1 uM in presence of 10 uM ATP by Select Screen kinase assay relative to untreated control

>  <BAO Format ID>  (561) 
BAO_0000357

>  <BAO Label>  (561) 
single protein format

>  <Assay Organism>  (561) 
None

>  <Target ChEMBL ID>  (561) 
CHEMBL4247

>  <Target Name>  (561) 
ALK tyrosine kinase receptor

>  <Target Organism>  (561) 
Homo sapiens

>  <Target Type>  (561) 
SINGLE PROTEIN

>  <Document ChEMBL ID>  (561) 
CHEMBL1250448

>  <Source Description>  (561) 
Scientific Literature

>  <Document Journal>  (561) 
Nat Chem Biol

>  <Document Year>  (561) 
2009.0

>  <Active>  (561) 
0.0

>  <bits>  (561) 
<rdkit.DataStructs.cDataStructs.ExplicitBitVect object at 0x000002422F1A85F0>

>  <Group>  (561) 
G2

$$$$

     RDKit          2D

 26 28  0  0  0  0  0  0  0  0999 V2000
    3.7500    1.2990    0.0000 O   0  0  0  0  0  0  0  0  0  0  0  0
    3.0000    0.0000    0.0000 N   0  0  0  0  0  4  0  0  0  0  0  0
    3.7500   -1.2990    0.0000 O   0  0  0  0  0  1  0  0  0  0  0  0
    1.5000    0.0000    0.0000 C   0  0  0  0  0  0  0  0  0  0  0  0
    0.7500   -1.2990    0.0000 C   0  0  0  0  0  0  0  0  0  0  0  0
   -0.7500   -1.2990    0.0000 C   0  0  0  0  0  0  0  0  0  0  0  0
   -1.5000    0.0000    0.0000 C   0  0  0  0  0  0  0  0  0  0  0  0
   -3.0000    0.0000    0.0000 S   0  0  0  0  0  0  0  0  0  0  0  0
   -3.0000    1.5000    0.0000 O   0  0  0  0  0  0  0  0  0  0  0  0
   -3.0000   -1.5000    0.0000 O   0  0  0  0  0  0  0  0  0  0  0  0
   -4.5000    0.0000    0.0000 N   0  0  0  0  0  0  0  0  0  0  0  0
   -5.2500   -1.2990    0.0000 C   0  0  0  0  0  0  0  0  0  0  0  0
   -6.7500   -1.2990    0.0000 C   0  0  0  0  0  0  0  0  0  0  0  0
   -7.5000   -2.5981    0.0000 C   0  0  0  0  0  0  0  0  0  0  0  0
   -6.7500   -3.8971    0.0000 C   0  0  0  0  0  0  0  0  0  0  0  0
   -7.5000   -5.1962    0.0000 O   0  0  0  0  0  0  0  0  0  0  0  0
   -5.2500   -3.8971    0.0000 C   0  0  0  0  0  0  0  0  0  0  0  0
   -4.5000   -5.1962    0.0000 S   0  0  0  0  0  0  0  0  0  0  0  0
   -3.0000   -5.1962    0.0000 C   0  0  0  0  0  0  0  0  0  0  0  0
   -2.1183   -3.9826    0.0000 N   0  0  0  0  0  0  0  0  0  0  0  0
   -0.6917   -4.4462    0.0000 N   0  0  0  0  0  0  0  0  0  0  0  0
   -0.6917   -5.9462    0.0000 C   0  0  0  0  0  0  0  0  0  0  0  0
   -2.1183   -6.4097    0.0000 S   0  0  0  0  0  0  0  0  0  0  0  0
   -4.5000   -2.5981    0.0000 C   0  0  0  0  0  0  0  0  0  0  0  0
   -0.7500    1.2990    0.0000 C   0  0  0  0  0  0  0  0  0  0  0  0
    0.7500    1.2990    0.0000 C   0  0  0  0  0  0  0  0  0  0  0  0
  1  2  2  0
  2  3  1  0
  2  4  1  0
  4  5  2  0
  5  6  1  0
  6  7  2  0
  7  8  1  0
  8  9  2  0
  8 10  2  0
  8 11  1  0
 11 12  1  0
 12 13  2  0
 13 14  1  0
 14 15  2  0
 15 16  1  0
 15 17  1  0
 17 18  1  0
 18 19  1  0
 19 20  2  0
 20 21  1  0
 21 22  2  0
 22 23  1  0
 17 24  2  0
  7 25  1  0
 25 26  2  0
 26  4  1  0
 24 12  1  0
 23 19  1  0
M  CHG  2   2   1   3  -1
M  END
>  <Compound_ID>  (562) 
CHEMBL2436635

>  <Molecule Name>  (562) 
nan

>  <Molecular Weight>  (562) 
410.46

>  <AlogP>  (562) 
3.1

>  <Smiles>  (562) 
O=[N+]([O-])c1ccc(S(=O)(=O)Nc2ccc(O)c(Sc3nncs3)c2)cc1

>  <Standard Type>  (562) 
Inhibition

>  <Standard Relation>  (562) 
'='

>  <Standard Units>  (562) 
%

>  <Standard Value>  (562) 
11.37

>  <Assay ChEMBL ID>  (562) 
CHEMBL2438115

>  <Assay Description>  (562) 
Inhibition of ALK (unknown origin) at 10 uM after 30 mins by fluorescence assay relative to control

>  <BAO Format ID>  (562) 
BAO_0000357

>  <BAO Label>  (562) 
single protein format

>  <Assay Organism>  (562) 
Homo sapiens

>  <Target ChEMBL ID>  (562) 
CHEMBL4247

>  <Target Name>  (562) 
ALK tyrosine kinase receptor

>  <Target Organism>  (562) 
Homo sapiens

>  <Target Type>  (562) 
SINGLE PROTEIN

>  <Document ChEMBL ID>  (562) 
CHEMBL2434840

>  <Source Description>  (562) 
Scientific Literature

>  <Document Journal>  (562) 
Eur J Med Chem

>  <Document Year>  (562) 
2013.0

>  <Active>  (562) 
0.0

>  <bits>  (562) 
<rdkit.DataStructs.cDataStructs.ExplicitBitVect object at 0x000002422F1A8510>

>  <Group>  (562) 
G2

$$$$

     RDKit          2D

 36 39  0  0  0  0  0  0  0  0999 V2000
   -2.5981   -8.1073    0.0000 C   0  0  0  0  0  0  0  0  0  0  0  0
   -1.2990   -7.3573    0.0000 O   0  0  0  0  0  0  0  0  0  0  0  0
   -1.2990   -5.8573    0.0000 C   0  0  0  0  0  0  0  0  0  0  0  0
   -2.5981   -5.1073    0.0000 O   0  0  0  0  0  0  0  0  0  0  0  0
   -0.0000   -5.1073    0.0000 N   0  0  0  0  0  0  0  0  0  0  0  0
   -0.0000   -3.6073    0.0000 C   0  0  0  0  0  0  0  0  0  0  0  0
    1.2135   -2.7256    0.0000 N   0  0  0  0  0  0  0  0  0  0  0  0
    0.7500   -1.2990    0.0000 C   0  0  0  0  0  0  0  0  0  0  0  0
    1.5000    0.0000    0.0000 C   0  0  0  0  0  0  0  0  0  0  0  0
    0.7500    1.2990    0.0000 C   0  0  0  0  0  0  0  0  0  0  0  0
    1.5000    2.5981    0.0000 O   0  0  0  0  0  0  0  0  0  0  0  0
    3.0000    2.5981    0.0000 C   0  0  0  0  0  0  0  0  0  0  0  0
    3.7500    1.2990    0.0000 C   0  0  0  0  0  0  0  0  0  0  0  0
    5.2500    1.2990    0.0000 C   0  0  0  0  0  0  0  0  0  0  0  0
    6.0000    2.5981    0.0000 C   0  0  0  0  0  0  0  0  0  0  0  0
    5.2500    3.8971    0.0000 C   0  0  0  0  0  0  0  0  0  0  0  0
    6.0000    5.1962    0.0000 N   0  0  0  0  0  0  0  0  0  0  0  0
    7.5000    5.1962    0.0000 C   0  0  0  0  0  0  0  0  0  0  0  0
    8.2500    3.8971    0.0000 O   0  0  0  0  0  0  0  0  0  0  0  0
    8.2500    6.4952    0.0000 N   0  0  0  0  0  0  0  0  0  0  0  0
    9.7500    6.4952    0.0000 C   0  0  0  0  0  0  0  0  0  0  0  0
   10.5000    5.1962    0.0000 C   0  0  0  0  0  0  0  0  0  0  0  0
   12.0000    5.1962    0.0000 C   0  0  0  0  0  0  0  0  0  0  0  0
   12.7500    3.8971    0.0000 C   0  0  0  0  0  0  0  0  0  0  0  0
   13.5000    2.5981    0.0000 F   0  0  0  0  0  0  0  0  0  0  0  0
   11.4510    3.1471    0.0000 F   0  0  0  0  0  0  0  0  0  0  0  0
   14.0490    4.6471    0.0000 F   0  0  0  0  0  0  0  0  0  0  0  0
   12.7500    6.4952    0.0000 C   0  0  0  0  0  0  0  0  0  0  0  0
   12.0000    7.7942    0.0000 C   0  0  0  0  0  0  0  0  0  0  0  0
   10.5000    7.7942    0.0000 C   0  0  0  0  0  0  0  0  0  0  0  0
    9.7500    9.0933    0.0000 F   0  0  0  0  0  0  0  0  0  0  0  0
    3.7500    3.8971    0.0000 C   0  0  0  0  0  0  0  0  0  0  0  0
   -0.7500    1.2990    0.0000 C   0  0  0  0  0  0  0  0  0  0  0  0
   -1.5000    0.0000    0.0000 C   0  0  0  0  0  0  0  0  0  0  0  0
   -0.7500   -1.2990    0.0000 C   0  0  0  0  0  0  0  0  0  0  0  0
   -1.2135   -2.7256    0.0000 N   0  0  0  0  0  0  0  0  0  0  0  0
  1  2  1  0
  2  3  1  0
  3  4  2  0
  3  5  1  0
  5  6  1  0
  6  7  2  0
  7  8  1  0
  8  9  2  0
  9 10  1  0
 10 11  1  0
 11 12  1  0
 12 13  2  0
 13 14  1  0
 14 15  2  0
 15 16  1  0
 16 17  1  0
 17 18  1  0
 18 19  2  0
 18 20  1  0
 20 21  1  0
 21 22  2  0
 22 23  1  0
 23 24  1  0
 24 25  1  0
 24 26  1  0
 24 27  1  0
 23 28  2  0
 28 29  1  0
 29 30  2  0
 30 31  1  0
 16 32  2  0
 10 33  2  0
 33 34  1  0
 34 35  2  0
 35 36  1  0
 36  6  1  0
 35  8  1  0
 32 12  1  0
 30 21  1  0
M  END
>  <Compound_ID>  (563) 
CHEMBL1909366

>  <Molecule Name>  (563) 
GW659386A

>  <Molecular Weight>  (563) 
539.87

>  <AlogP>  (563) 
6.34

>  <Smiles>  (563) 
COC(=O)Nc1nc2cc(Oc3cccc(NC(=O)Nc4cc(C(F)(F)F)ccc4F)c3)ccc2[nH]1

>  <Standard Type>  (563) 
Inhibition

>  <Standard Relation>  (563) 
'='

>  <Standard Units>  (563) 
%

>  <Standard Value>  (563) 
0.13

>  <Assay ChEMBL ID>  (563) 
CHEMBL1962241

>  <Assay Description>  (563) 
GSK_PKIS: ALK mean inhibition at 1 uM [Nanosyn]

>  <BAO Format ID>  (563) 
BAO_0000357

>  <BAO Label>  (563) 
single protein format

>  <Assay Organism>  (563) 
None

>  <Target ChEMBL ID>  (563) 
CHEMBL4247

>  <Target Name>  (563) 
ALK tyrosine kinase receptor

>  <Target Organism>  (563) 
Homo sapiens

>  <Target Type>  (563) 
SINGLE PROTEIN

>  <Document ChEMBL ID>  (563) 
CHEMBL1961873

>  <Source Description>  (563) 
GSK Published Kinase Inhibitor Set

>  <Document Journal>  (563) 
nan

>  <Document Year>  (563) 
nan

>  <Active>  (563) 
0.0

>  <bits>  (563) 
<rdkit.DataStructs.cDataStructs.ExplicitBitVect object at 0x000002422F1A8200>

>  <Group>  (563) 
G2

$$$$

     RDKit          2D

 45 50  0  0  0  0  0  0  0  0999 V2000
    7.1181  -10.4063    0.0000 O   0  0  0  0  0  0  0  0  0  0  0  0
    7.7282   -9.0360    0.0000 S   0  0  0  0  0  0  0  0  0  0  0  0
    8.3383   -7.6657    0.0000 O   0  0  0  0  0  0  0  0  0  0  0  0
    6.3579   -8.4259    0.0000 C   0  0  0  0  0  0  0  0  0  0  0  0
    6.2011   -6.9341    0.0000 C   0  0  0  0  0  0  0  0  0  0  0  0
    4.8308   -6.3240    0.0000 N   0  0  0  0  0  0  0  0  0  0  0  0
    4.6740   -4.8322    0.0000 C   0  0  0  0  0  0  0  0  0  0  0  0
    3.3037   -4.2221    0.0000 C   0  0  0  0  0  0  0  0  0  0  0  0
    2.0046   -4.9721    0.0000 C   0  0  0  0  0  0  0  0  0  0  0  0
    0.8899   -3.9684    0.0000 C   0  0  0  0  0  0  0  0  0  0  0  0
    1.5000   -2.5981    0.0000 C   0  0  0  0  0  0  0  0  0  0  0  0
    0.7500   -1.2990    0.0000 C   0  0  0  0  0  0  0  0  0  0  0  0
    1.5000    0.0000    0.0000 C   0  0  0  0  0  0  0  0  0  0  0  0
    0.7500    1.2990    0.0000 C   0  0  0  0  0  0  0  0  0  0  0  0
   -0.7500    1.2990    0.0000 C   0  0  0  0  0  0  0  0  0  0  0  0
   -1.5000    2.5981    0.0000 N   0  0  0  0  0  0  0  0  0  0  0  0
   -3.0000    2.5981    0.0000 C   0  0  0  0  0  0  0  0  0  0  0  0
   -3.7500    1.2990    0.0000 N   0  0  0  0  0  0  0  0  0  0  0  0
   -3.0000    0.0000    0.0000 C   0  0  0  0  0  0  0  0  0  0  0  0
   -3.7500   -1.2990    0.0000 N   0  0  0  0  0  0  0  0  0  0  0  0
   -5.2500   -1.2990    0.0000 C   0  0  0  0  0  0  0  0  0  0  0  0
   -6.0000    0.0000    0.0000 C   0  0  0  0  0  0  0  0  0  0  0  0
   -7.5000    0.0000    0.0000 C   0  0  0  0  0  0  0  0  0  0  0  0
   -8.2500   -1.2990    0.0000 C   0  0  0  0  0  0  0  0  0  0  0  0
   -9.7500   -1.2990    0.0000 O   0  0  0  0  0  0  0  0  0  0  0  0
  -10.5000    0.0000    0.0000 C   0  0  0  0  0  0  0  0  0  0  0  0
  -12.0000    0.0000    0.0000 C   0  0  0  0  0  0  0  0  0  0  0  0
  -12.7500    1.2990    0.0000 C   0  0  0  0  0  0  0  0  0  0  0  0
  -14.2500    1.2990    0.0000 C   0  0  0  0  0  0  0  0  0  0  0  0
  -15.0000    0.0000    0.0000 C   0  0  0  0  0  0  0  0  0  0  0  0
  -14.2500   -1.2990    0.0000 C   0  0  0  0  0  0  0  0  0  0  0  0
  -15.0000   -2.5981    0.0000 F   0  0  0  0  0  0  0  0  0  0  0  0
  -12.7500   -1.2990    0.0000 C   0  0  0  0  0  0  0  0  0  0  0  0
   -7.5000   -2.5981    0.0000 C   0  0  0  0  0  0  0  0  0  0  0  0
   -8.2500   -3.8971    0.0000 Cl  0  0  0  0  0  0  0  0  0  0  0  0
   -6.0000   -2.5981    0.0000 C   0  0  0  0  0  0  0  0  0  0  0  0
   -1.5000    0.0000    0.0000 C   0  0  0  0  0  0  0  0  0  0  0  0
   -0.7500   -1.2990    0.0000 C   0  0  0  0  0  0  0  0  0  0  0  0
    2.9918   -2.7549    0.0000 O   0  0  0  0  0  0  0  0  0  0  0  0
    9.0985   -9.6461    0.0000 C   0  0  0  0  0  0  0  0  0  0  0  0
    9.2553  -11.1379    0.0000 C   0  0  0  0  0  0  0  0  0  0  0  0
   10.6256  -11.7480    0.0000 C   0  0  0  0  0  0  0  0  0  0  0  0
   11.8391  -10.8663    0.0000 C   0  0  0  0  0  0  0  0  0  0  0  0
   11.6824   -9.3745    0.0000 C   0  0  0  0  0  0  0  0  0  0  0  0
   10.3120   -8.7644    0.0000 C   0  0  0  0  0  0  0  0  0  0  0  0
  1  2  2  0
  2  3  2  0
  2  4  1  0
  4  5  1  0
  5  6  1  0
  6  7  1  0
  7  8  1  0
  8  9  2  0
  9 10  1  0
 10 11  2  0
 11 12  1  0
 12 13  2  0
 13 14  1  0
 14 15  2  0
 15 16  1  0
 16 17  2  0
 17 18  1  0
 18 19  2  0
 19 20  1  0
 20 21  1  0
 21 22  2  0
 22 23  1  0
 23 24  2  0
 24 25  1  0
 25 26  1  0
 26 27  1  0
 27 28  2  0
 28 29  1  0
 29 30  2  0
 30 31  1  0
 31 32  1  0
 31 33  2  0
 24 34  1  0
 34 35  1  0
 34 36  2  0
 19 37  1  0
 37 38  2  0
 11 39  1  0
  2 40  1  0
 40 41  2  0
 41 42  1  0
 42 43  2  0
 43 44  1  0
 44 45  2  0
 39  8  1  0
 45 40  1  0
 38 12  1  0
 37 15  1  0
 36 21  1  0
 33 27  1  0
M  END
>  <Compound_ID>  (564) 
CHEMBL1909395

>  <Molecule Name>  (564) 
GW633459A

>  <Molecular Weight>  (564) 
679.6

>  <AlogP>  (564) 
7.57

>  <Smiles>  (564) 
O=S(=O)(CCNCc1ccc(-c2ccc3ncnc(Nc4ccc(OCc5cccc(F)c5)c(Cl)c4)c3c2)o1)c1ccccc1

>  <Standard Type>  (564) 
Inhibition

>  <Standard Relation>  (564) 
'='

>  <Standard Units>  (564) 
%

>  <Standard Value>  (564) 
6.67

>  <Assay ChEMBL ID>  (564) 
CHEMBL1962241

>  <Assay Description>  (564) 
GSK_PKIS: ALK mean inhibition at 1 uM [Nanosyn]

>  <BAO Format ID>  (564) 
BAO_0000357

>  <BAO Label>  (564) 
single protein format

>  <Assay Organism>  (564) 
None

>  <Target ChEMBL ID>  (564) 
CHEMBL4247

>  <Target Name>  (564) 
ALK tyrosine kinase receptor

>  <Target Organism>  (564) 
Homo sapiens

>  <Target Type>  (564) 
SINGLE PROTEIN

>  <Document ChEMBL ID>  (564) 
CHEMBL1961873

>  <Source Description>  (564) 
GSK Published Kinase Inhibitor Set

>  <Document Journal>  (564) 
nan

>  <Document Year>  (564) 
nan

>  <Active>  (564) 
0.0

>  <bits>  (564) 
<rdkit.DataStructs.cDataStructs.ExplicitBitVect object at 0x000002422F1A8CF0>

>  <Group>  (564) 
G2

$$$$

     RDKit          2D

 37 42  0  0  0  0  0  0  0  0999 V2000
   -7.2258  -12.0188    0.0000 C   0  0  0  0  0  0  0  0  0  0  0  0
   -6.1111  -11.0151    0.0000 C   0  0  0  0  0  0  0  0  0  0  0  0
   -4.6845  -11.4787    0.0000 C   0  0  0  0  0  0  0  0  0  0  0  0
   -3.5698  -10.4750    0.0000 C   0  0  0  0  0  0  0  0  0  0  0  0
   -3.8817   -9.0078    0.0000 C   0  0  0  0  0  0  0  0  0  0  0  0
   -3.0000   -7.7942    0.0000 C   0  0  0  0  0  0  0  0  0  0  0  0
   -1.5000   -7.7942    0.0000 C   0  0  0  0  0  0  0  0  0  0  0  0
   -0.7500   -6.4952    0.0000 C   0  0  0  0  0  0  0  0  0  0  0  0
    0.7500   -6.4952    0.0000 C   0  0  0  0  0  0  0  0  0  0  0  0
    1.5000   -7.7942    0.0000 N   0  0  0  0  0  0  0  0  0  0  0  0
    0.7500   -9.0933    0.0000 C   0  0  0  0  0  0  0  0  0  0  0  0
    1.5000  -10.3923    0.0000 N   0  0  0  0  0  0  0  0  0  0  0  0
    0.7500  -11.6913    0.0000 C   0  0  0  0  0  0  0  0  0  0  0  0
   -0.7500  -11.6913    0.0000 C   0  0  0  0  0  0  0  0  0  0  0  0
   -1.5000  -12.9904    0.0000 C   0  0  0  0  0  0  0  0  0  0  0  0
   -0.7500  -14.2894    0.0000 C   0  0  0  0  0  0  0  0  0  0  0  0
    0.7500  -14.2894    0.0000 C   0  0  0  0  0  0  0  0  0  0  0  0
    1.5000  -12.9904    0.0000 C   0  0  0  0  0  0  0  0  0  0  0  0
    1.5000  -15.5885    0.0000 O   0  0  0  0  0  0  0  0  0  0  0  0
    0.7500  -16.8875    0.0000 C   0  0  0  0  0  0  0  0  0  0  0  0
   -0.7500  -16.8875    0.0000 C   0  0  0  0  0  0  0  0  0  0  0  0
   -1.5000  -15.5885    0.0000 O   0  0  0  0  0  0  0  0  0  0  0  0
   -0.7500   -9.0933    0.0000 N   0  0  0  0  0  0  0  0  0  0  0  0
   -3.8817   -6.5807    0.0000 C   0  0  0  0  0  0  0  0  0  0  0  0
   -3.4182   -5.1541    0.0000 C   0  0  0  0  0  0  0  0  0  0  0  0
   -1.9509   -4.8423    0.0000 C   0  0  0  0  0  0  0  0  0  0  0  0
   -1.4874   -3.4157    0.0000 C   0  0  0  0  0  0  0  0  0  0  0  0
   -2.4911   -2.3009    0.0000 C   0  0  0  0  0  0  0  0  0  0  0  0
   -2.0276   -0.8744    0.0000 C   0  0  0  0  0  0  0  0  0  0  0  0
   -1.5641    0.5522    0.0000 F   0  0  0  0  0  0  0  0  0  0  0  0
   -3.4542   -0.4108    0.0000 F   0  0  0  0  0  0  0  0  0  0  0  0
   -0.6010   -1.3379    0.0000 F   0  0  0  0  0  0  0  0  0  0  0  0
   -3.9583   -2.6128    0.0000 C   0  0  0  0  0  0  0  0  0  0  0  0
   -4.4218   -4.0394    0.0000 C   0  0  0  0  0  0  0  0  0  0  0  0
   -5.3083   -7.0442    0.0000 N   0  0  0  0  0  0  0  0  0  0  0  0
   -5.3083   -8.5442    0.0000 N   0  0  0  0  0  0  0  0  0  0  0  0
   -6.4230   -9.5479    0.0000 N   0  0  0  0  0  0  0  0  0  0  0  0
  1  2  1  0
  2  3  1  0
  3  4  2  0
  4  5  1  0
  5  6  2  0
  6  7  1  0
  7  8  2  0
  8  9  1  0
  9 10  2  0
 10 11  1  0
 11 12  1  0
 12 13  1  0
 13 14  2  0
 14 15  1  0
 15 16  2  0
 16 17  1  0
 17 18  2  0
 17 19  1  0
 19 20  1  0
 20 21  1  0
 21 22  1  0
 11 23  2  0
  6 24  1  0
 24 25  1  0
 25 26  2  0
 26 27  1  0
 27 28  2  0
 28 29  1  0
 29 30  1  0
 29 31  1  0
 29 32  1  0
 28 33  1  0
 33 34  2  0
 24 35  2  0
 35 36  1  0
 36 37  1  0
 37  2  2  0
 36  5  1  0
 23  7  1  0
 34 25  1  0
 18 13  1  0
 22 16  1  0
M  END
>  <Compound_ID>  (565) 
CHEMBL188247

>  <Molecule Name>  (565) 
GW832467X

>  <Molecular Weight>  (565) 
504.47

>  <AlogP>  (565) 
5.7

>  <Smiles>  (565) 
Cc1ccc2c(-c3ccnc(Nc4ccc5c(c4)OCCO5)n3)c(-c3ccc(C(F)(F)F)cc3)nn2n1

>  <Standard Type>  (565) 
Inhibition

>  <Standard Relation>  (565) 
'='

>  <Standard Units>  (565) 
%

>  <Standard Value>  (565) 
2.45

>  <Assay ChEMBL ID>  (565) 
CHEMBL1962240

>  <Assay Description>  (565) 
GSK_PKIS: ALK mean inhibition at 0.1 uM [Nanosyn]

>  <BAO Format ID>  (565) 
BAO_0000357

>  <BAO Label>  (565) 
single protein format

>  <Assay Organism>  (565) 
None

>  <Target ChEMBL ID>  (565) 
CHEMBL4247

>  <Target Name>  (565) 
ALK tyrosine kinase receptor

>  <Target Organism>  (565) 
Homo sapiens

>  <Target Type>  (565) 
SINGLE PROTEIN

>  <Document ChEMBL ID>  (565) 
CHEMBL1961873

>  <Source Description>  (565) 
GSK Published Kinase Inhibitor Set

>  <Document Journal>  (565) 
nan

>  <Document Year>  (565) 
nan

>  <Active>  (565) 
0.0

>  <bits>  (565) 
<rdkit.DataStructs.cDataStructs.ExplicitBitVect object at 0x000002422F1A8350>

>  <Group>  (565) 
G2

$$$$

     RDKit          2D

 27 30  0  0  0  0  0  0  0  0999 V2000
   -0.0000   -5.1073    0.0000 O   0  0  0  0  0  0  0  0  0  0  0  0
   -0.0000   -3.6073    0.0000 C   0  0  0  0  0  0  0  0  0  0  0  0
    1.2135   -2.7256    0.0000 N   0  0  0  0  0  0  0  0  0  0  0  0
    0.7500   -1.2990    0.0000 C   0  0  0  0  0  0  0  0  0  0  0  0
    1.5000    0.0000    0.0000 C   0  0  0  0  0  0  0  0  0  0  0  0
    0.7500    1.2990    0.0000 C   0  0  0  0  0  0  0  0  0  0  0  0
   -0.7500    1.2990    0.0000 C   0  0  0  0  0  0  0  0  0  0  0  0
   -1.5000    2.5981    0.0000 C   0  0  0  0  0  0  0  0  0  0  0  0
   -3.0000    2.5981    0.0000 O   0  0  0  0  0  0  0  0  0  0  0  0
   -0.7500    3.8971    0.0000 C   0  0  0  0  0  0  0  0  0  0  0  0
   -1.3601    5.2674    0.0000 C   0  0  0  0  0  0  0  0  0  0  0  0
   -0.2454    6.2711    0.0000 C   0  0  0  0  0  0  0  0  0  0  0  0
    1.0537    5.5211    0.0000 C   0  0  0  0  0  0  0  0  0  0  0  0
    0.7418    4.0539    0.0000 O   0  0  0  0  0  0  0  0  0  0  0  0
   -1.5000    0.0000    0.0000 C   0  0  0  0  0  0  0  0  0  0  0  0
   -0.7500   -1.2990    0.0000 C   0  0  0  0  0  0  0  0  0  0  0  0
   -1.2135   -2.7256    0.0000 C   0  0  0  0  0  0  0  0  0  0  0  0
   -2.6401   -3.1891    0.0000 C   0  0  0  0  0  0  0  0  0  0  0  0
   -2.9520   -4.6564    0.0000 C   0  0  0  0  0  0  0  0  0  0  0  0
   -4.3786   -5.1199    0.0000 C   0  0  0  0  0  0  0  0  0  0  0  0
   -4.6904   -6.5871    0.0000 C   0  0  0  0  0  0  0  0  0  0  0  0
   -6.1170   -7.0506    0.0000 Cl  0  0  0  0  0  0  0  0  0  0  0  0
   -3.5757   -7.5908    0.0000 C   0  0  0  0  0  0  0  0  0  0  0  0
   -3.8876   -9.0580    0.0000 O   0  0  0  0  0  0  0  0  0  0  0  0
   -2.1491   -7.1273    0.0000 C   0  0  0  0  0  0  0  0  0  0  0  0
   -1.0344   -8.1310    0.0000 Cl  0  0  0  0  0  0  0  0  0  0  0  0
   -1.8373   -5.6601    0.0000 C   0  0  0  0  0  0  0  0  0  0  0  0
  1  2  2  0
  2  3  1  0
  3  4  1  0
  4  5  2  0
  5  6  1  0
  6  7  2  0
  7  8  1  0
  8  9  2  0
  8 10  1  0
 10 11  2  0
 11 12  1  0
 12 13  2  0
 13 14  1  0
  7 15  1  0
 15 16  2  0
 16 17  1  0
 17 18  2  3
 18 19  1  0
 19 20  2  0
 20 21  1  0
 21 22  1  0
 21 23  2  0
 23 24  1  0
 23 25  1  0
 25 26  1  0
 25 27  2  0
 17  2  1  0
 27 19  1  0
 16  4  1  0
 14 10  1  0
M  END
>  <Compound_ID>  (566) 
CHEMBL1789963

>  <Molecule Name>  (566) 
GW406108X

>  <Molecular Weight>  (566) 
400.22

>  <AlogP>  (566) 
5.02

>  <Smiles>  (566) 
O=C1Nc2ccc(C(=O)c3ccco3)cc2C1=Cc1cc(Cl)c(O)c(Cl)c1

>  <Standard Type>  (566) 
Inhibition

>  <Standard Relation>  (566) 
'='

>  <Standard Units>  (566) 
%

>  <Standard Value>  (566) 
3.92

>  <Assay ChEMBL ID>  (566) 
CHEMBL1962240

>  <Assay Description>  (566) 
GSK_PKIS: ALK mean inhibition at 0.1 uM [Nanosyn]

>  <BAO Format ID>  (566) 
BAO_0000357

>  <BAO Label>  (566) 
single protein format

>  <Assay Organism>  (566) 
None

>  <Target ChEMBL ID>  (566) 
CHEMBL4247

>  <Target Name>  (566) 
ALK tyrosine kinase receptor

>  <Target Organism>  (566) 
Homo sapiens

>  <Target Type>  (566) 
SINGLE PROTEIN

>  <Document ChEMBL ID>  (566) 
CHEMBL1961873

>  <Source Description>  (566) 
GSK Published Kinase Inhibitor Set

>  <Document Journal>  (566) 
nan

>  <Document Year>  (566) 
nan

>  <Active>  (566) 
0.0

>  <bits>  (566) 
<rdkit.DataStructs.cDataStructs.ExplicitBitVect object at 0x000002422F1A92A0>

>  <Group>  (566) 
G2

$$$$

     RDKit          2D

 21 23  0  0  0  0  0  0  0  0999 V2000
    4.0667   -3.6527    0.0000 N   0  0  0  0  0  0  0  0  0  0  0  0
    2.6401   -3.1891    0.0000 C   0  0  0  0  0  0  0  0  0  0  0  0
    1.2135   -2.7256    0.0000 C   0  0  0  0  0  0  0  0  0  0  0  0
   -0.0000   -3.6073    0.0000 C   0  0  0  0  0  0  0  0  0  0  0  0
   -0.0000   -5.1073    0.0000 N   0  0  0  0  0  0  0  0  0  0  0  0
   -1.2990   -5.8573    0.0000 C   0  0  0  0  0  0  0  0  0  0  0  0
   -2.5981   -5.1073    0.0000 O   0  0  0  0  0  0  0  0  0  0  0  0
   -1.2990   -7.3573    0.0000 C   0  0  0  0  0  0  0  0  0  0  0  0
   -2.5981   -8.1073    0.0000 C   0  0  0  0  0  0  0  0  0  0  0  0
   -2.5981   -9.6073    0.0000 C   0  0  0  0  0  0  0  0  0  0  0  0
   -1.2990  -10.3573    0.0000 C   0  0  0  0  0  0  0  0  0  0  0  0
    0.0000   -9.6073    0.0000 C   0  0  0  0  0  0  0  0  0  0  0  0
    0.0000   -8.1073    0.0000 C   0  0  0  0  0  0  0  0  0  0  0  0
    1.2990   -7.3573    0.0000 F   0  0  0  0  0  0  0  0  0  0  0  0
   -1.2135   -2.7256    0.0000 S   0  0  0  0  0  0  0  0  0  0  0  0
   -0.7500   -1.2990    0.0000 C   0  0  0  0  0  0  0  0  0  0  0  0
    0.7500   -1.2990    0.0000 C   0  0  0  0  0  0  0  0  0  0  0  0
    1.5000    0.0000    0.0000 C   0  0  0  0  0  0  0  0  0  0  0  0
    0.7500    1.2990    0.0000 C   0  0  0  0  0  0  0  0  0  0  0  0
   -0.7500    1.2990    0.0000 C   0  0  0  0  0  0  0  0  0  0  0  0
   -1.5000    0.0000    0.0000 C   0  0  0  0  0  0  0  0  0  0  0  0
  1  2  3  0
  2  3  1  0
  3  4  2  0
  4  5  1  0
  5  6  1  0
  6  7  2  0
  6  8  1  0
  8  9  2  0
  9 10  1  0
 10 11  2  0
 11 12  1  0
 12 13  2  0
 13 14  1  0
  4 15  1  0
 15 16  1  0
 16 17  2  0
 17 18  1  0
 18 19  1  0
 19 20  1  0
 20 21  1  0
 17  3  1  0
 13  8  1  0
 21 16  1  0
M  END
>  <Compound_ID>  (567) 
CHEMBL234838

>  <Molecule Name>  (567) 
GW572738X

>  <Molecular Weight>  (567) 
300.36

>  <AlogP>  (567) 
3.89

>  <Smiles>  (567) 
N#Cc1c(NC(=O)c2ccccc2F)sc2c1CCCC2

>  <Standard Type>  (567) 
Inhibition

>  <Standard Relation>  (567) 
'='

>  <Standard Units>  (567) 
%

>  <Standard Value>  (567) 
1.02

>  <Assay ChEMBL ID>  (567) 
CHEMBL1962241

>  <Assay Description>  (567) 
GSK_PKIS: ALK mean inhibition at 1 uM [Nanosyn]

>  <BAO Format ID>  (567) 
BAO_0000357

>  <BAO Label>  (567) 
single protein format

>  <Assay Organism>  (567) 
None

>  <Target ChEMBL ID>  (567) 
CHEMBL4247

>  <Target Name>  (567) 
ALK tyrosine kinase receptor

>  <Target Organism>  (567) 
Homo sapiens

>  <Target Type>  (567) 
SINGLE PROTEIN

>  <Document ChEMBL ID>  (567) 
CHEMBL1961873

>  <Source Description>  (567) 
GSK Published Kinase Inhibitor Set

>  <Document Journal>  (567) 
nan

>  <Document Year>  (567) 
nan

>  <Active>  (567) 
0.0

>  <bits>  (567) 
<rdkit.DataStructs.cDataStructs.ExplicitBitVect object at 0x000002422F1A8B30>

>  <Group>  (567) 
G2

$$$$

     RDKit          2D

 29 32  0  0  0  0  0  0  0  0999 V2000
   -3.0000   -5.1962    0.0000 O   0  0  0  0  0  0  0  0  0  0  0  0
   -3.7500   -3.8971    0.0000 C   0  0  0  0  0  0  0  0  0  0  0  0
   -3.0000   -2.5981    0.0000 N   0  0  0  0  0  0  0  0  0  0  0  0
   -1.5000   -2.5981    0.0000 C   0  0  0  0  0  0  0  0  0  0  0  0
   -0.7500   -3.8971    0.0000 C   0  0  0  0  0  0  0  0  0  0  0  0
    0.7500   -3.8971    0.0000 C   0  0  0  0  0  0  0  0  0  0  0  0
    1.5000   -5.1962    0.0000 S   0  0  0  0  0  0  0  0  0  0  0  0
    0.7500   -6.4952    0.0000 C   0  0  0  0  0  0  0  0  0  0  0  0
    1.3601   -7.8655    0.0000 N   0  0  0  0  0  0  0  0  0  0  0  0
    0.2454   -8.8692    0.0000 C   0  0  0  0  0  0  0  0  0  0  0  0
   -1.0537   -8.1192    0.0000 N   0  0  0  0  0  0  0  0  0  0  0  0
   -0.7418   -6.6520    0.0000 N   0  0  0  0  0  0  0  0  0  0  0  0
    1.5000   -2.5981    0.0000 C   0  0  0  0  0  0  0  0  0  0  0  0
    3.0000   -2.5981    0.0000 O   0  0  0  0  0  0  0  0  0  0  0  0
    0.7500   -1.2990    0.0000 C   0  0  0  0  0  0  0  0  0  0  0  0
    1.5000    0.0000    0.0000 C   0  0  0  0  0  0  0  0  0  0  0  0
    0.7500    1.2990    0.0000 C   0  0  0  0  0  0  0  0  0  0  0  0
   -0.7500    1.2990    0.0000 C   0  0  0  0  0  0  0  0  0  0  0  0
   -1.5000    0.0000    0.0000 C   0  0  0  0  0  0  0  0  0  0  0  0
   -0.7500   -1.2990    0.0000 C   0  0  0  0  0  0  0  0  0  0  0  0
   -5.2500   -3.8971    0.0000 C   0  0  0  0  0  0  0  0  0  0  0  0
   -6.0000   -2.5981    0.0000 C   0  0  0  0  0  0  0  0  0  0  0  0
   -7.5000   -2.5981    0.0000 C   0  0  0  0  0  0  0  0  0  0  0  0
   -8.2500   -3.8971    0.0000 C   0  0  0  0  0  0  0  0  0  0  0  0
   -9.7500   -3.8971    0.0000 N   0  0  0  0  0  4  0  0  0  0  0  0
  -10.5000   -5.1962    0.0000 O   0  0  0  0  0  0  0  0  0  0  0  0
  -10.5000   -2.5981    0.0000 O   0  0  0  0  0  1  0  0  0  0  0  0
   -7.5000   -5.1962    0.0000 C   0  0  0  0  0  0  0  0  0  0  0  0
   -6.0000   -5.1962    0.0000 C   0  0  0  0  0  0  0  0  0  0  0  0
  1  2  2  0
  2  3  1  0
  3  4  1  0
  4  5  2  0
  5  6  1  0
  6  7  1  0
  7  8  1  0
  8  9  2  0
  9 10  1  0
 10 11  2  0
 11 12  1  0
  6 13  2  0
 13 14  1  0
 13 15  1  0
 15 16  2  0
 16 17  1  0
 17 18  2  0
 18 19  1  0
 19 20  2  0
  2 21  1  0
 21 22  2  0
 22 23  1  0
 23 24  2  0
 24 25  1  0
 25 26  2  0
 25 27  1  0
 24 28  1  0
 28 29  2  0
 20  4  1  0
 29 21  1  0
 12  8  1  0
 20 15  1  0
M  CHG  2  25   1  27  -1
M  END
>  <Compound_ID>  (568) 
CHEMBL2391414

>  <Molecule Name>  (568) 
nan

>  <Molecular Weight>  (568) 
407.41

>  <AlogP>  (568) 
3.98

>  <Smiles>  (568) 
O=C(Nc1cc(Sc2ncn[nH]2)c(O)c2ccccc12)c1ccc([N+](=O)[O-])cc1

>  <Standard Type>  (568) 
Inhibition

>  <Standard Relation>  (568) 
'='

>  <Standard Units>  (568) 
%

>  <Standard Value>  (568) 
3.37

>  <Assay ChEMBL ID>  (568) 
CHEMBL2394291

>  <Assay Description>  (568) 
Inhibition of ALK (unknown origin) at 10 uM after 30 mins by fluorescence assay

>  <BAO Format ID>  (568) 
BAO_0000357

>  <BAO Label>  (568) 
single protein format

>  <Assay Organism>  (568) 
Homo sapiens

>  <Target ChEMBL ID>  (568) 
CHEMBL4247

>  <Target Name>  (568) 
ALK tyrosine kinase receptor

>  <Target Organism>  (568) 
Homo sapiens

>  <Target Type>  (568) 
SINGLE PROTEIN

>  <Document ChEMBL ID>  (568) 
CHEMBL2390901

>  <Source Description>  (568) 
Scientific Literature

>  <Document Journal>  (568) 
Eur J Med Chem

>  <Document Year>  (568) 
2013.0

>  <Active>  (568) 
0.0

>  <bits>  (568) 
<rdkit.DataStructs.cDataStructs.ExplicitBitVect object at 0x000002422F1A8970>

>  <Group>  (568) 
G2

$$$$

     RDKit          2D

 16 18  0  0  0  0  0  0  0  0999 V2000
   -2.6401   -3.1891    0.0000 C   0  0  0  0  0  0  0  0  0  0  0  0
   -1.2135   -2.7256    0.0000 N   0  0  0  0  0  0  0  0  0  0  0  0
   -0.0000   -3.6073    0.0000 C   0  0  0  0  0  0  0  0  0  0  0  0
   -0.0000   -5.1073    0.0000 C   0  0  0  0  0  0  0  0  0  0  0  0
    1.2135   -5.9890    0.0000 N   0  0  0  0  0  0  0  0  0  0  0  0
    0.7500   -7.4156    0.0000 O   0  0  0  0  0  0  0  0  0  0  0  0
   -0.7500   -7.4156    0.0000 N   0  0  0  0  0  0  0  0  0  0  0  0
   -1.2135   -5.9890    0.0000 C   0  0  0  0  0  0  0  0  0  0  0  0
   -2.6401   -5.5255    0.0000 N   0  0  0  0  0  0  0  0  0  0  0  0
    1.2135   -2.7256    0.0000 N   0  0  0  0  0  0  0  0  0  0  0  0
    0.7500   -1.2990    0.0000 C   0  0  0  0  0  0  0  0  0  0  0  0
    1.5000    0.0000    0.0000 C   0  0  0  0  0  0  0  0  0  0  0  0
    0.7500    1.2990    0.0000 N   0  0  0  0  0  0  0  0  0  0  0  0
   -0.7500    1.2990    0.0000 C   0  0  0  0  0  0  0  0  0  0  0  0
   -1.5000    0.0000    0.0000 C   0  0  0  0  0  0  0  0  0  0  0  0
   -0.7500   -1.2990    0.0000 C   0  0  0  0  0  0  0  0  0  0  0  0
  1  2  1  0
  2  3  1  0
  3  4  1  0
  4  5  2  0
  5  6  1  0
  6  7  1  0
  7  8  2  0
  8  9  1  0
  3 10  2  0
 10 11  1  0
 11 12  2  0
 12 13  1  0
 13 14  2  0
 14 15  1  0
 15 16  2  0
 16  2  1  0
  8  4  1  0
 16 11  1  0
M  END
>  <Compound_ID>  (569) 
CHEMBL188048

>  <Molecule Name>  (569) 
nan

>  <Molecular Weight>  (569) 
216.2

>  <AlogP>  (569) 
0.6

>  <Smiles>  (569) 
Cn1c(-c2nonc2N)nc2cnccc21

>  <Standard Type>  (569) 
Inhibition

>  <Standard Relation>  (569) 
'='

>  <Standard Units>  (569) 
%

>  <Standard Value>  (569) 
3.93

>  <Assay ChEMBL ID>  (569) 
CHEMBL1962241

>  <Assay Description>  (569) 
GSK_PKIS: ALK mean inhibition at 1 uM [Nanosyn]

>  <BAO Format ID>  (569) 
BAO_0000357

>  <BAO Label>  (569) 
single protein format

>  <Assay Organism>  (569) 
None

>  <Target ChEMBL ID>  (569) 
CHEMBL4247

>  <Target Name>  (569) 
ALK tyrosine kinase receptor

>  <Target Organism>  (569) 
Homo sapiens

>  <Target Type>  (569) 
SINGLE PROTEIN

>  <Document ChEMBL ID>  (569) 
CHEMBL1961873

>  <Source Description>  (569) 
GSK Published Kinase Inhibitor Set

>  <Document Journal>  (569) 
nan

>  <Document Year>  (569) 
nan

>  <Active>  (569) 
0.0

>  <bits>  (569) 
<rdkit.DataStructs.cDataStructs.ExplicitBitVect object at 0x000002422F1A8660>

>  <Group>  (569) 
G2

$$$$

     RDKit          2D

 39 43  0  0  0  0  0  0  0  0999 V2000
   -5.4969  -12.5290    0.0000 C   0  0  0  0  0  0  0  0  0  0  0  0
   -4.0051  -12.6858    0.0000 N   0  0  0  0  0  0  0  0  0  0  0  0
   -3.3950  -14.0561    0.0000 C   0  0  0  0  0  0  0  0  0  0  0  0
   -3.1235  -11.4723    0.0000 C   0  0  0  0  0  0  0  0  0  0  0  0
   -3.7336  -10.1020    0.0000 O   0  0  0  0  0  0  0  0  0  0  0  0
   -1.6317  -11.6291    0.0000 O   0  0  0  0  0  0  0  0  0  0  0  0
   -0.7500  -10.4156    0.0000 C   0  0  0  0  0  0  0  0  0  0  0  0
    0.7500  -10.4156    0.0000 C   0  0  0  0  0  0  0  0  0  0  0  0
    1.2135   -8.9890    0.0000 N   0  0  0  0  0  0  0  0  0  0  0  0
    0.0000   -8.1073    0.0000 C   0  0  0  0  0  0  0  0  0  0  0  0
   -0.0000   -6.6073    0.0000 C   0  0  0  0  0  0  0  0  0  0  0  0
   -0.0000   -5.1073    0.0000 C   0  0  0  0  0  0  0  0  0  0  0  0
   -0.0000   -3.6073    0.0000 C   0  0  0  0  0  0  0  0  0  0  0  0
    1.2135   -2.7256    0.0000 C   0  0  0  0  0  0  0  0  0  0  0  0
    0.7500   -1.2990    0.0000 C   0  0  0  0  0  0  0  0  0  0  0  0
    1.5000    0.0000    0.0000 N   0  0  0  0  0  0  0  0  0  0  0  0
    0.7500    1.2990    0.0000 C   0  0  0  0  0  0  0  0  0  0  0  0
   -0.7500    1.2990    0.0000 N   0  0  0  0  0  0  0  0  0  0  0  0
   -1.5000    0.0000    0.0000 C   0  0  0  0  0  0  0  0  0  0  0  0
   -3.0000    0.0000    0.0000 N   0  0  0  0  0  0  0  0  0  0  0  0
   -3.7500    1.2990    0.0000 C   0  0  0  0  0  0  0  0  0  0  0  0
   -3.0000    2.5981    0.0000 C   0  0  0  0  0  0  0  0  0  0  0  0
   -3.7500    3.8971    0.0000 C   0  0  0  0  0  0  0  0  0  0  0  0
   -5.2500    3.8971    0.0000 C   0  0  0  0  0  0  0  0  0  0  0  0
   -6.0000    5.1962    0.0000 O   0  0  0  0  0  0  0  0  0  0  0  0
   -5.2500    6.4952    0.0000 C   0  0  0  0  0  0  0  0  0  0  0  0
   -6.0000    7.7942    0.0000 C   0  0  0  0  0  0  0  0  0  0  0  0
   -5.2500    9.0933    0.0000 C   0  0  0  0  0  0  0  0  0  0  0  0
   -6.0000   10.3923    0.0000 C   0  0  0  0  0  0  0  0  0  0  0  0
   -7.5000   10.3923    0.0000 C   0  0  0  0  0  0  0  0  0  0  0  0
   -8.2500    9.0933    0.0000 C   0  0  0  0  0  0  0  0  0  0  0  0
   -9.7500    9.0933    0.0000 F   0  0  0  0  0  0  0  0  0  0  0  0
   -7.5000    7.7942    0.0000 C   0  0  0  0  0  0  0  0  0  0  0  0
   -6.0000    2.5981    0.0000 C   0  0  0  0  0  0  0  0  0  0  0  0
   -7.5000    2.5981    0.0000 Cl  0  0  0  0  0  0  0  0  0  0  0  0
   -5.2500    1.2990    0.0000 C   0  0  0  0  0  0  0  0  0  0  0  0
   -0.7500   -1.2990    0.0000 C   0  0  0  0  0  0  0  0  0  0  0  0
   -1.2135   -2.7256    0.0000 S   0  0  0  0  0  0  0  0  0  0  0  0
   -1.2135   -8.9890    0.0000 C   0  0  0  0  0  0  0  0  0  0  0  0
  1  2  1  0
  2  3  1  0
  2  4  1  0
  4  5  2  0
  4  6  1  0
  7  6  1  6
  7  8  1  0
  8  9  1  0
  9 10  1  0
 10 11  1  1
 11 12  3  0
 12 13  1  0
 13 14  2  0
 14 15  1  0
 15 16  2  0
 16 17  1  0
 17 18  2  0
 18 19  1  0
 19 20  1  0
 20 21  1  0
 21 22  2  0
 22 23  1  0
 23 24  2  0
 24 25  1  0
 25 26  1  0
 26 27  1  0
 27 28  2  0
 28 29  1  0
 29 30  2  0
 30 31  1  0
 31 32  1  0
 31 33  2  0
 24 34  1  0
 34 35  1  0
 34 36  2  0
 19 37  2  0
 37 38  1  0
 10 39  1  0
 39  7  1  0
 38 13  1  0
 37 15  1  0
 36 21  1  0
 33 27  1  0
M  END
>  <Compound_ID>  (570) 
CHEMBL517123

>  <Molecule Name>  (570) 
GSK-182497A

>  <Molecular Weight>  (570) 
566.06

>  <AlogP>  (570) 
5.59

>  <Smiles>  (570) 
CN(C)C(=O)O[C@H]1CN[C@H](C#Cc2cc3ncnc(Nc4ccc(OCc5cccc(F)c5)c(Cl)c4)c3s2)C1

>  <Standard Type>  (570) 
Inhibition

>  <Standard Relation>  (570) 
'='

>  <Standard Units>  (570) 
%

>  <Standard Value>  (570) 
2.82

>  <Assay ChEMBL ID>  (570) 
CHEMBL1962240

>  <Assay Description>  (570) 
GSK_PKIS: ALK mean inhibition at 0.1 uM [Nanosyn]

>  <BAO Format ID>  (570) 
BAO_0000357

>  <BAO Label>  (570) 
single protein format

>  <Assay Organism>  (570) 
None

>  <Target ChEMBL ID>  (570) 
CHEMBL4247

>  <Target Name>  (570) 
ALK tyrosine kinase receptor

>  <Target Organism>  (570) 
Homo sapiens

>  <Target Type>  (570) 
SINGLE PROTEIN

>  <Document ChEMBL ID>  (570) 
CHEMBL1961873

>  <Source Description>  (570) 
GSK Published Kinase Inhibitor Set

>  <Document Journal>  (570) 
nan

>  <Document Year>  (570) 
nan

>  <Active>  (570) 
0.0

>  <bits>  (570) 
<rdkit.DataStructs.cDataStructs.ExplicitBitVect object at 0x000002422F1A8270>

>  <Group>  (570) 
G2

$$$$

     RDKit          2D

 32 36  0  0  0  0  0  0  0  0999 V2000
    3.0000    0.0000    0.0000 F   0  0  0  0  0  0  0  0  0  0  0  0
    1.5000    0.0000    0.0000 C   0  0  0  0  0  0  0  0  0  0  0  0
    0.7500   -1.2990    0.0000 C   0  0  0  0  0  0  0  0  0  0  0  0
   -0.7500   -1.2990    0.0000 C   0  0  0  0  0  0  0  0  0  0  0  0
   -1.5000    0.0000    0.0000 C   0  0  0  0  0  0  0  0  0  0  0  0
   -3.0000    0.0000    0.0000 O   0  0  0  0  0  0  0  0  0  0  0  0
   -3.7500    1.2990    0.0000 C   0  0  0  0  0  0  0  0  0  0  0  0
   -3.0000    2.5981    0.0000 N   0  0  0  0  0  0  0  0  0  0  0  0
   -3.7500    3.8971    0.0000 C   0  0  0  0  0  0  0  0  0  0  0  0
   -5.2500    3.8971    0.0000 C   0  0  0  0  0  0  0  0  0  0  0  0
   -6.0000    2.5981    0.0000 C   0  0  0  0  0  0  0  0  0  0  0  0
   -7.5000    2.5981    0.0000 C   0  0  0  0  0  0  0  0  0  0  0  0
   -8.3817    1.3846    0.0000 C   0  0  0  0  0  0  0  0  0  0  0  0
   -7.9182   -0.0420    0.0000 C   0  0  0  0  0  0  0  0  0  0  0  0
   -8.9218   -1.1568    0.0000 C   0  0  0  0  0  0  0  0  0  0  0  0
   -8.4583   -2.5833    0.0000 C   0  0  0  0  0  0  0  0  0  0  0  0
   -6.9911   -2.8952    0.0000 C   0  0  0  0  0  0  0  0  0  0  0  0
   -6.5276   -4.3218    0.0000 F   0  0  0  0  0  0  0  0  0  0  0  0
   -5.9874   -1.7805    0.0000 C   0  0  0  0  0  0  0  0  0  0  0  0
   -6.4509   -0.3539    0.0000 C   0  0  0  0  0  0  0  0  0  0  0  0
   -9.8083    1.8481    0.0000 N   0  0  0  0  0  0  0  0  0  0  0  0
   -9.8083    3.3481    0.0000 C   0  0  0  0  0  0  0  0  0  0  0  0
   -8.3817    3.8116    0.0000 N   0  0  0  0  0  0  0  0  0  0  0  0
   -7.9182    5.2382    0.0000 C   0  0  0  0  0  0  0  0  0  0  0  0
   -6.4509    5.5501    0.0000 C   0  0  0  0  0  0  0  0  0  0  0  0
   -5.9874    6.9766    0.0000 C   0  0  0  0  0  0  0  0  0  0  0  0
   -6.9911    8.0914    0.0000 N   0  0  0  0  0  0  0  0  0  0  0  0
   -8.4583    7.7795    0.0000 C   0  0  0  0  0  0  0  0  0  0  0  0
   -8.9218    6.3529    0.0000 C   0  0  0  0  0  0  0  0  0  0  0  0
   -5.2500    1.2990    0.0000 N   0  0  0  0  0  0  0  0  0  0  0  0
   -0.7500    1.2990    0.0000 C   0  0  0  0  0  0  0  0  0  0  0  0
    0.7500    1.2990    0.0000 C   0  0  0  0  0  0  0  0  0  0  0  0
  1  2  1  0
  2  3  2  0
  3  4  1  0
  4  5  2  0
  5  6  1  0
  6  7  1  0
  7  8  2  0
  8  9  1  0
  9 10  2  0
 10 11  1  0
 11 12  1  0
 12 13  2  0
 13 14  1  0
 14 15  2  0
 15 16  1  0
 16 17  2  0
 17 18  1  0
 17 19  1  0
 19 20  2  0
 13 21  1  0
 21 22  2  0
 22 23  1  0
 23 24  1  0
 24 25  1  0
 25 26  1  0
 26 27  1  0
 27 28  1  0
 28 29  1  0
 11 30  2  0
  5 31  1  0
 31 32  2  0
 32  2  1  0
 30  7  1  0
 23 12  1  0
 29 24  1  0
 20 14  1  0
M  END
>  <Compound_ID>  (571) 
CHEMBL269450

>  <Molecule Name>  (571) 
nan

>  <Molecular Weight>  (571) 
433.46

>  <AlogP>  (571) 
5.0

>  <Smiles>  (571) 
Fc1ccc(Oc2nccc(-c3c(-c4ccc(F)cc4)ncn3C3CCNCC3)n2)cc1

>  <Standard Type>  (571) 
Inhibition

>  <Standard Relation>  (571) 
'='

>  <Standard Units>  (571) 
%

>  <Standard Value>  (571) 
0.66

>  <Assay ChEMBL ID>  (571) 
CHEMBL1962241

>  <Assay Description>  (571) 
GSK_PKIS: ALK mean inhibition at 1 uM [Nanosyn]

>  <BAO Format ID>  (571) 
BAO_0000357

>  <BAO Label>  (571) 
single protein format

>  <Assay Organism>  (571) 
None

>  <Target ChEMBL ID>  (571) 
CHEMBL4247

>  <Target Name>  (571) 
ALK tyrosine kinase receptor

>  <Target Organism>  (571) 
Homo sapiens

>  <Target Type>  (571) 
SINGLE PROTEIN

>  <Document ChEMBL ID>  (571) 
CHEMBL1961873

>  <Source Description>  (571) 
GSK Published Kinase Inhibitor Set

>  <Document Journal>  (571) 
nan

>  <Document Year>  (571) 
nan

>  <Active>  (571) 
0.0

>  <bits>  (571) 
<rdkit.DataStructs.cDataStructs.ExplicitBitVect object at 0x000002422F1A8D60>

>  <Group>  (571) 
G2

$$$$

     RDKit          2D

 22 24  0  0  0  0  0  0  0  0999 V2000
   -6.7407   -9.9851    0.0000 N   0  0  0  0  0  0  0  0  0  0  0  0
   -6.4289   -8.5179    0.0000 S   0  0  0  0  0  0  0  0  0  0  0  0
   -7.8961   -8.2060    0.0000 O   0  0  0  0  0  0  0  0  0  0  0  0
   -4.9617   -8.8297    0.0000 O   0  0  0  0  0  0  0  0  0  0  0  0
   -6.1170   -7.0506    0.0000 C   0  0  0  0  0  0  0  0  0  0  0  0
   -7.2317   -6.0469    0.0000 C   0  0  0  0  0  0  0  0  0  0  0  0
   -6.9199   -4.5797    0.0000 C   0  0  0  0  0  0  0  0  0  0  0  0
   -5.4933   -4.1162    0.0000 C   0  0  0  0  0  0  0  0  0  0  0  0
   -4.3786   -5.1199    0.0000 C   0  0  0  0  0  0  0  0  0  0  0  0
   -2.9520   -4.6564    0.0000 N   0  0  0  0  0  0  0  0  0  0  0  0
   -2.6401   -3.1891    0.0000 C   0  0  0  0  0  0  0  0  0  0  0  0
   -1.2135   -2.7256    0.0000 C   0  0  0  0  0  0  0  0  0  0  0  0
   -0.0000   -3.6073    0.0000 C   0  0  0  0  0  0  0  0  0  0  0  0
    0.0000   -5.1073    0.0000 O   0  0  0  0  0  0  0  0  0  0  0  0
    1.2135   -2.7256    0.0000 N   0  0  0  0  0  0  0  0  0  0  0  0
    0.7500   -1.2990    0.0000 C   0  0  0  0  0  0  0  0  0  0  0  0
    1.5000    0.0000    0.0000 C   0  0  0  0  0  0  0  0  0  0  0  0
    0.7500    1.2990    0.0000 C   0  0  0  0  0  0  0  0  0  0  0  0
   -0.7500    1.2990    0.0000 C   0  0  0  0  0  0  0  0  0  0  0  0
   -1.5000    0.0000    0.0000 C   0  0  0  0  0  0  0  0  0  0  0  0
   -0.7500   -1.2990    0.0000 C   0  0  0  0  0  0  0  0  0  0  0  0
   -4.6904   -6.5871    0.0000 C   0  0  0  0  0  0  0  0  0  0  0  0
  1  2  1  0
  2  3  2  0
  2  4  2  0
  2  5  1  0
  5  6  2  0
  6  7  1  0
  7  8  2  0
  8  9  1  0
  9 10  1  0
 10 11  1  0
 11 12  2  0
 12 13  1  0
 13 14  2  0
 13 15  1  0
 15 16  1  0
 16 17  2  0
 17 18  1  0
 18 19  2  0
 19 20  1  0
 20 21  2  0
  9 22  2  0
 22  5  1  0
 21 12  1  0
 21 16  1  0
M  END
>  <Compound_ID>  (572) 
CHEMBL1794059

>  <Molecule Name>  (572) 
GW275616X

>  <Molecular Weight>  (572) 
315.35

>  <AlogP>  (572) 
1.74

>  <Smiles>  (572) 
NS(=O)(=O)c1cccc(N/C=C2\C(=O)Nc3ccccc32)c1

>  <Standard Type>  (572) 
Inhibition

>  <Standard Relation>  (572) 
'='

>  <Standard Units>  (572) 
%

>  <Standard Value>  (572) 
2.94

>  <Assay ChEMBL ID>  (572) 
CHEMBL1962240

>  <Assay Description>  (572) 
GSK_PKIS: ALK mean inhibition at 0.1 uM [Nanosyn]

>  <BAO Format ID>  (572) 
BAO_0000357

>  <BAO Label>  (572) 
single protein format

>  <Assay Organism>  (572) 
None

>  <Target ChEMBL ID>  (572) 
CHEMBL4247

>  <Target Name>  (572) 
ALK tyrosine kinase receptor

>  <Target Organism>  (572) 
Homo sapiens

>  <Target Type>  (572) 
SINGLE PROTEIN

>  <Document ChEMBL ID>  (572) 
CHEMBL1961873

>  <Source Description>  (572) 
GSK Published Kinase Inhibitor Set

>  <Document Journal>  (572) 
nan

>  <Document Year>  (572) 
nan

>  <Active>  (572) 
0.0

>  <bits>  (572) 
<rdkit.DataStructs.cDataStructs.ExplicitBitVect object at 0x000002422F1A9770>

>  <Group>  (572) 
G2

$$$$

     RDKit          2D

 27 29  0  0  0  0  0  0  0  0999 V2000
    4.5000   -2.5981    0.0000 C   0  0  0  0  0  0  0  0  0  0  0  0
    3.7500   -1.2990    0.0000 S   0  0  0  0  0  0  0  0  0  0  0  0
    2.4510   -2.0490    0.0000 O   0  0  0  0  0  0  0  0  0  0  0  0
    5.0490   -0.5490    0.0000 O   0  0  0  0  0  0  0  0  0  0  0  0
    3.0000    0.0000    0.0000 N   0  0  0  0  0  0  0  0  0  0  0  0
    1.5000    0.0000    0.0000 C   0  0  0  0  0  0  0  0  0  0  0  0
    0.7500   -1.2990    0.0000 C   0  0  0  0  0  0  0  0  0  0  0  0
   -0.7500   -1.2990    0.0000 C   0  0  0  0  0  0  0  0  0  0  0  0
   -1.5000    0.0000    0.0000 C   0  0  0  0  0  0  0  0  0  0  0  0
   -3.0000    0.0000    0.0000 C   0  0  0  0  0  0  0  0  0  0  0  0
   -3.7500    1.2990    0.0000 C   0  0  0  0  0  0  0  0  0  0  0  0
   -5.2500    1.2990    0.0000 C   0  0  0  0  0  0  0  0  0  0  0  0
   -6.0000    2.5981    0.0000 C   0  0  0  0  0  0  0  0  0  0  0  0
   -5.2500    3.8971    0.0000 C   0  0  0  0  0  0  0  0  0  0  0  0
   -6.0000    5.1962    0.0000 C   0  0  0  0  0  0  0  0  0  0  0  0
   -7.5000    5.1962    0.0000 C   0  0  0  0  0  0  0  0  0  0  0  0
   -8.2500    3.8971    0.0000 C   0  0  0  0  0  0  0  0  0  0  0  0
   -7.5000    2.5981    0.0000 C   0  0  0  0  0  0  0  0  0  0  0  0
   -6.0000    0.0000    0.0000 C   0  0  0  0  0  0  0  0  0  0  0  0
   -5.2500   -1.2990    0.0000 C   0  0  0  0  0  0  0  0  0  0  0  0
   -6.0000   -2.5981    0.0000 C   0  0  0  0  0  0  0  0  0  0  0  0
   -7.5000   -2.5981    0.0000 N   0  0  0  0  0  0  0  0  0  0  0  0
   -5.2500   -3.8971    0.0000 O   0  0  0  0  0  0  0  0  0  0  0  0
   -3.7500   -1.2990    0.0000 C   0  0  0  0  0  0  0  0  0  0  0  0
   -3.0000   -2.5981    0.0000 N   0  0  0  0  0  0  0  0  0  0  0  0
   -0.7500    1.2990    0.0000 C   0  0  0  0  0  0  0  0  0  0  0  0
    0.7500    1.2990    0.0000 C   0  0  0  0  0  0  0  0  0  0  0  0
  1  2  1  0
  2  3  2  0
  2  4  2  0
  2  5  1  0
  5  6  1  0
  6  7  2  0
  7  8  1  0
  8  9  2  0
  9 10  1  0
 10 11  2  0
 11 12  1  0
 12 13  1  0
 13 14  2  0
 14 15  1  0
 15 16  2  0
 16 17  1  0
 17 18  2  0
 12 19  2  0
 19 20  1  0
 20 21  1  0
 21 22  1  0
 21 23  2  0
 20 24  2  0
 24 25  1  0
  9 26  1  0
 26 27  2  0
 27  6  1  0
 24 10  1  0
 18 13  1  0
M  END
>  <Compound_ID>  (573) 
CHEMBL230597

>  <Molecule Name>  (573) 
GSK-586581A

>  <Molecular Weight>  (573) 
381.46

>  <AlogP>  (573) 
3.07

>  <Smiles>  (573) 
CS(=O)(=O)Nc1ccc(-c2cc(-c3ccccc3)cc(C(N)=O)c2N)cc1

>  <Standard Type>  (573) 
Inhibition

>  <Standard Relation>  (573) 
'='

>  <Standard Units>  (573) 
%

>  <Standard Value>  (573) 
0.29

>  <Assay ChEMBL ID>  (573) 
CHEMBL1962240

>  <Assay Description>  (573) 
GSK_PKIS: ALK mean inhibition at 0.1 uM [Nanosyn]

>  <BAO Format ID>  (573) 
BAO_0000357

>  <BAO Label>  (573) 
single protein format

>  <Assay Organism>  (573) 
None

>  <Target ChEMBL ID>  (573) 
CHEMBL4247

>  <Target Name>  (573) 
ALK tyrosine kinase receptor

>  <Target Organism>  (573) 
Homo sapiens

>  <Target Type>  (573) 
SINGLE PROTEIN

>  <Document ChEMBL ID>  (573) 
CHEMBL1961873

>  <Source Description>  (573) 
GSK Published Kinase Inhibitor Set

>  <Document Journal>  (573) 
nan

>  <Document Year>  (573) 
nan

>  <Active>  (573) 
0.0

>  <bits>  (573) 
<rdkit.DataStructs.cDataStructs.ExplicitBitVect object at 0x000002422F1A8F90>

>  <Group>  (573) 
G2

$$$$

     RDKit          2D

 25 28  0  0  0  0  0  0  0  0999 V2000
    1.8478   -6.4639    0.0000 C   0  0  0  0  0  0  0  0  0  0  0  0
    2.0046   -4.9721    0.0000 C   0  0  0  0  0  0  0  0  0  0  0  0
    3.3037   -4.2221    0.0000 N   0  0  0  0  0  0  0  0  0  0  0  0
    2.9918   -2.7549    0.0000 N   0  0  0  0  0  0  0  0  0  0  0  0
    1.5000   -2.5981    0.0000 C   0  0  0  0  0  0  0  0  0  0  0  0
    0.7500   -1.2990    0.0000 C   0  0  0  0  0  0  0  0  0  0  0  0
    1.5000    0.0000    0.0000 C   0  0  0  0  0  0  0  0  0  0  0  0
    0.7500    1.2990    0.0000 C   0  0  0  0  0  0  0  0  0  0  0  0
   -0.7500    1.2990    0.0000 C   0  0  0  0  0  0  0  0  0  0  0  0
   -1.5000    0.0000    0.0000 C   0  0  0  0  0  0  0  0  0  0  0  0
   -3.0000    0.0000    0.0000 C   0  0  0  0  0  0  0  0  0  0  0  0
   -3.7500    1.2990    0.0000 C   0  0  0  0  0  0  0  0  0  0  0  0
   -5.2500    1.2990    0.0000 C   0  0  0  0  0  0  0  0  0  0  0  0
   -6.0000    0.0000    0.0000 C   0  0  0  0  0  0  0  0  0  0  0  0
   -7.5000    0.0000    0.0000 C   0  0  0  0  0  0  0  0  0  0  0  0
   -8.2500   -1.2990    0.0000 O   0  0  0  0  0  0  0  0  0  0  0  0
   -8.2500    1.2990    0.0000 N   0  0  0  0  0  0  0  0  0  0  0  0
   -9.7500    1.2990    0.0000 C   0  0  0  0  0  0  0  0  0  0  0  0
  -10.5000    2.5981    0.0000 C   0  0  0  0  0  0  0  0  0  0  0  0
  -11.7990    3.3481    0.0000 C   0  0  0  0  0  0  0  0  0  0  0  0
  -10.5000    4.0981    0.0000 C   0  0  0  0  0  0  0  0  0  0  0  0
   -5.2500   -1.2990    0.0000 C   0  0  0  0  0  0  0  0  0  0  0  0
   -3.7500   -1.2990    0.0000 C   0  0  0  0  0  0  0  0  0  0  0  0
   -0.7500   -1.2990    0.0000 C   0  0  0  0  0  0  0  0  0  0  0  0
    0.8899   -3.9684    0.0000 O   0  0  0  0  0  0  0  0  0  0  0  0
  1  2  1  0
  2  3  2  0
  3  4  1  0
  4  5  2  0
  5  6  1  0
  6  7  2  0
  7  8  1  0
  8  9  2  0
  9 10  1  0
 10 11  1  0
 11 12  2  0
 12 13  1  0
 13 14  2  0
 14 15  1  0
 15 16  2  0
 15 17  1  0
 17 18  1  0
 18 19  1  0
 19 20  1  0
 20 21  1  0
 14 22  1  0
 22 23  2  0
 10 24  2  0
  5 25  1  0
 25  2  1  0
 24  6  1  0
 23 11  1  0
 21 19  1  0
M  END
>  <Compound_ID>  (574) 
CHEMBL257113

>  <Molecule Name>  (574) 
GW734508X

>  <Molecular Weight>  (574) 
333.39

>  <AlogP>  (574) 
3.85

>  <Smiles>  (574) 
Cc1nnc(-c2cccc(-c3ccc(C(=O)NCC4CC4)cc3)c2)o1

>  <Standard Type>  (574) 
Inhibition

>  <Standard Relation>  (574) 
'='

>  <Standard Units>  (574) 
%

>  <Standard Value>  (574) 
5.21

>  <Assay ChEMBL ID>  (574) 
CHEMBL1962241

>  <Assay Description>  (574) 
GSK_PKIS: ALK mean inhibition at 1 uM [Nanosyn]

>  <BAO Format ID>  (574) 
BAO_0000357

>  <BAO Label>  (574) 
single protein format

>  <Assay Organism>  (574) 
None

>  <Target ChEMBL ID>  (574) 
CHEMBL4247

>  <Target Name>  (574) 
ALK tyrosine kinase receptor

>  <Target Organism>  (574) 
Homo sapiens

>  <Target Type>  (574) 
SINGLE PROTEIN

>  <Document ChEMBL ID>  (574) 
CHEMBL1961873

>  <Source Description>  (574) 
GSK Published Kinase Inhibitor Set

>  <Document Journal>  (574) 
nan

>  <Document Year>  (574) 
nan

>  <Active>  (574) 
0.0

>  <bits>  (574) 
<rdkit.DataStructs.cDataStructs.ExplicitBitVect object at 0x000002422F1A8BA0>

>  <Group>  (574) 
G2

$$$$

     RDKit          2D

 28 32  0  0  0  0  0  0  0  0999 V2000
    3.7500   -1.2990    0.0000 C   0  0  0  0  0  0  0  0  0  0  0  0
    3.0000    0.0000    0.0000 O   0  0  0  0  0  0  0  0  0  0  0  0
    1.5000    0.0000    0.0000 C   0  0  0  0  0  0  0  0  0  0  0  0
    0.7500   -1.2990    0.0000 C   0  0  0  0  0  0  0  0  0  0  0  0
   -0.7500   -1.2990    0.0000 C   0  0  0  0  0  0  0  0  0  0  0  0
   -1.5000    0.0000    0.0000 C   0  0  0  0  0  0  0  0  0  0  0  0
   -3.0000    0.0000    0.0000 C   0  0  0  0  0  0  0  0  0  0  0  0
   -3.7500   -1.2990    0.0000 O   0  0  0  0  0  0  0  0  0  0  0  0
   -5.2500   -1.2990    0.0000 C   0  0  0  0  0  0  0  0  0  0  0  0
   -6.0000   -2.5981    0.0000 C   0  0  0  0  0  0  0  0  0  0  0  0
   -5.3899   -3.9684    0.0000 N   0  0  0  0  0  0  0  0  0  0  0  0
   -6.5046   -4.9721    0.0000 N   0  0  0  0  0  0  0  0  0  0  0  0
   -7.8037   -4.2221    0.0000 C   0  0  0  0  0  0  0  0  0  0  0  0
   -9.2954   -4.3789    0.0000 S   0  0  0  0  0  0  0  0  0  0  0  0
   -9.9055   -3.0086    0.0000 C   0  0  0  0  0  0  0  0  0  0  0  0
  -11.3728   -2.6967    0.0000 C   0  0  0  0  0  0  0  0  0  0  0  0
  -12.4875   -3.7004    0.0000 C   0  0  0  0  0  0  0  0  0  0  0  0
  -13.7865   -2.9504    0.0000 N   0  0  0  0  0  0  0  0  0  0  0  0
  -13.4746   -1.4832    0.0000 N   0  0  0  0  0  0  0  0  0  0  0  0
  -14.4783   -0.3685    0.0000 C   0  0  0  0  0  0  0  0  0  0  0  0
  -11.9829   -1.3264    0.0000 C   0  0  0  0  0  0  0  0  0  0  0  0
   -8.7908   -2.0049    0.0000 N   0  0  0  0  0  0  0  0  0  0  0  0
   -7.4918   -2.7549    0.0000 N   0  0  0  0  0  0  0  0  0  0  0  0
   -3.7500    1.2990    0.0000 C   0  0  0  0  0  0  0  0  0  0  0  0
   -3.0000    2.5981    0.0000 C   0  0  0  0  0  0  0  0  0  0  0  0
   -1.5000    2.5981    0.0000 N   0  0  0  0  0  0  0  0  0  0  0  0
   -0.7500    1.2990    0.0000 C   0  0  0  0  0  0  0  0  0  0  0  0
    0.7500    1.2990    0.0000 C   0  0  0  0  0  0  0  0  0  0  0  0
  1  2  1  0
  2  3  1  0
  3  4  2  0
  4  5  1  0
  5  6  2  0
  6  7  1  0
  7  8  1  0
  8  9  1  0
  9 10  1  0
 10 11  2  0
 11 12  1  0
 12 13  2  0
 13 14  1  0
 14 15  1  0
 15 16  1  0
 16 17  1  0
 17 18  2  0
 18 19  1  0
 19 20  1  0
 19 21  1  0
 15 22  2  0
 22 23  1  0
  7 24  2  0
 24 25  1  0
 25 26  2  0
 26 27  1  0
 27 28  2  0
 28  3  1  0
 27  6  1  0
 23 10  1  0
 23 13  1  0
 21 16  2  0
M  END
>  <Compound_ID>  (575) 
CHEMBL4249147

>  <Molecule Name>  (575) 
nan

>  <Molecular Weight>  (575) 
393.43

>  <AlogP>  (575) 
2.72

>  <Smiles>  (575) 
COc1ccc2c(OCc3nnc4sc(-c5cnn(C)c5)nn34)ccnc2c1

>  <Standard Type>  (575) 
Inhibition

>  <Standard Relation>  (575) 
'='

>  <Standard Units>  (575) 
%

>  <Standard Value>  (575) 
-1.59

>  <Assay ChEMBL ID>  (575) 
CHEMBL4231725

>  <Assay Description>  (575) 
Inhibition of GST-tagged human ALK at 5 uM preincubated for 20 mins followed by [33P]-ATP addition measured after 2 hrs by Hot-Spot kinase assay

>  <BAO Format ID>  (575) 
BAO_0000357

>  <BAO Label>  (575) 
single protein format

>  <Assay Organism>  (575) 
Homo sapiens

>  <Target ChEMBL ID>  (575) 
CHEMBL4247

>  <Target Name>  (575) 
ALK tyrosine kinase receptor

>  <Target Organism>  (575) 
Homo sapiens

>  <Target Type>  (575) 
SINGLE PROTEIN

>  <Document ChEMBL ID>  (575) 
CHEMBL4229371

>  <Source Description>  (575) 
Scientific Literature

>  <Document Journal>  (575) 
Eur J Med Chem

>  <Document Year>  (575) 
2018.0

>  <Active>  (575) 
0.0

>  <bits>  (575) 
<rdkit.DataStructs.cDataStructs.ExplicitBitVect object at 0x000002422F1A8820>

>  <Group>  (575) 
G2

$$$$

     RDKit          2D

 34 38  0  0  0  0  0  0  0  0999 V2000
   11.8391  -10.8663    0.0000 C   0  0  0  0  0  0  0  0  0  0  0  0
   10.4688  -10.2562    0.0000 N   0  0  0  0  0  0  0  0  0  0  0  0
    9.2553  -11.1379    0.0000 C   0  0  0  0  0  0  0  0  0  0  0  0
   10.3120   -8.7644    0.0000 C   0  0  0  0  0  0  0  0  0  0  0  0
    8.9417   -8.1543    0.0000 C   0  0  0  0  0  0  0  0  0  0  0  0
    8.7849   -6.6625    0.0000 O   0  0  0  0  0  0  0  0  0  0  0  0
    7.4146   -6.0524    0.0000 C   0  0  0  0  0  0  0  0  0  0  0  0
    6.2011   -6.9341    0.0000 C   0  0  0  0  0  0  0  0  0  0  0  0
    4.8308   -6.3240    0.0000 C   0  0  0  0  0  0  0  0  0  0  0  0
    4.6740   -4.8322    0.0000 C   0  0  0  0  0  0  0  0  0  0  0  0
    3.3037   -4.2221    0.0000 C   0  0  0  0  0  0  0  0  0  0  0  0
    2.0046   -4.9721    0.0000 N   0  0  0  0  0  0  0  0  0  0  0  0
    0.8899   -3.9684    0.0000 C   0  0  0  0  0  0  0  0  0  0  0  0
   -0.5773   -4.2803    0.0000 C   0  0  0  0  0  0  0  0  0  0  0  0
   -1.5810   -3.1655    0.0000 C   0  0  0  0  0  0  0  0  0  0  0  0
   -3.0482   -3.4774    0.0000 C   0  0  0  0  0  0  0  0  0  0  0  0
   -3.5118   -4.9040    0.0000 N   0  0  0  0  0  0  0  0  0  0  0  0
   -2.5081   -6.0187    0.0000 C   0  0  0  0  0  0  0  0  0  0  0  0
   -1.0409   -5.7068    0.0000 C   0  0  0  0  0  0  0  0  0  0  0  0
    1.5000   -2.5981    0.0000 C   0  0  0  0  0  0  0  0  0  0  0  0
    0.7500   -1.2990    0.0000 C   0  0  0  0  0  0  0  0  0  0  0  0
    1.5000    0.0000    0.0000 C   0  0  0  0  0  0  0  0  0  0  0  0
    0.7500    1.2990    0.0000 C   0  0  0  0  0  0  0  0  0  0  0  0
   -0.7500    1.2990    0.0000 C   0  0  0  0  0  0  0  0  0  0  0  0
   -1.5000    0.0000    0.0000 C   0  0  0  0  0  0  0  0  0  0  0  0
   -0.7500   -1.2990    0.0000 C   0  0  0  0  0  0  0  0  0  0  0  0
   -2.9672    0.3119    0.0000 C   0  0  0  0  0  0  0  0  0  0  0  0
   -3.1240    1.8037    0.0000 C   0  0  0  0  0  0  0  0  0  0  0  0
   -1.7537    2.4138    0.0000 C   0  0  0  0  0  0  0  0  0  0  0  0
   -1.4418    3.8810    0.0000 N   0  0  0  0  0  0  0  0  0  0  0  0
   -2.5565    4.8847    0.0000 O   0  0  0  0  0  0  0  0  0  0  0  0
    2.9918   -2.7549    0.0000 N   0  0  0  0  0  0  0  0  0  0  0  0
    5.8875   -3.9505    0.0000 C   0  0  0  0  0  0  0  0  0  0  0  0
    7.2578   -4.5606    0.0000 C   0  0  0  0  0  0  0  0  0  0  0  0
  1  2  1  0
  2  3  1  0
  2  4  1  0
  4  5  1  0
  5  6  1  0
  6  7  1  0
  7  8  2  0
  8  9  1  0
  9 10  2  0
 10 11  1  0
 11 12  2  0
 12 13  1  0
 13 14  1  0
 14 15  2  0
 15 16  1  0
 16 17  2  0
 17 18  1  0
 18 19  2  0
 13 20  2  0
 20 21  1  0
 21 22  2  0
 22 23  1  0
 23 24  2  0
 24 25  1  0
 25 26  2  0
 25 27  1  0
 27 28  1  0
 28 29  1  0
 29 30  2  0
 30 31  1  0
 20 32  1  0
 10 33  1  0
 33 34  2  0
 34  7  1  0
 32 11  1  0
 19 14  1  0
 26 21  1  0
 29 24  1  0
M  END
>  <Compound_ID>  (576) 
CHEMBL1909414

>  <Molecule Name>  (576) 
nan

>  <Molecular Weight>  (576) 
508.02

>  <AlogP>  (576) 
4.87

>  <Smiles>  (576) 
CN(C)CCOc1ccc(-c2nc(-c3ccncc3)c(-c3ccc4c(c3)CC/C4=N\O)[nH]2)cc1

>  <Standard Type>  (576) 
Inhibition

>  <Standard Relation>  (576) 
'='

>  <Standard Units>  (576) 
%

>  <Standard Value>  (576) 
2.17

>  <Assay ChEMBL ID>  (576) 
CHEMBL1962240

>  <Assay Description>  (576) 
GSK_PKIS: ALK mean inhibition at 0.1 uM [Nanosyn]

>  <BAO Format ID>  (576) 
BAO_0000357

>  <BAO Label>  (576) 
single protein format

>  <Assay Organism>  (576) 
None

>  <Target ChEMBL ID>  (576) 
CHEMBL4247

>  <Target Name>  (576) 
ALK tyrosine kinase receptor

>  <Target Organism>  (576) 
Homo sapiens

>  <Target Type>  (576) 
SINGLE PROTEIN

>  <Document ChEMBL ID>  (576) 
CHEMBL1961873

>  <Source Description>  (576) 
GSK Published Kinase Inhibitor Set

>  <Document Journal>  (576) 
nan

>  <Document Year>  (576) 
nan

>  <Active>  (576) 
0.0

>  <bits>  (576) 
<rdkit.DataStructs.cDataStructs.ExplicitBitVect object at 0x000002422F1A8EB0>

>  <Group>  (576) 
G2

$$$$

     RDKit          2D

 25 28  0  0  0  0  0  0  0  0999 V2000
    4.5000   -7.7942    0.0000 N   0  0  0  0  0  0  0  0  0  0  0  0
    3.7500   -6.4952    0.0000 S   0  0  0  0  0  0  0  0  0  0  0  0
    2.4510   -7.2452    0.0000 O   0  0  0  0  0  0  0  0  0  0  0  0
    5.0490   -5.7452    0.0000 O   0  0  0  0  0  0  0  0  0  0  0  0
    3.0000   -5.1962    0.0000 C   0  0  0  0  0  0  0  0  0  0  0  0
    1.5000   -5.1962    0.0000 C   0  0  0  0  0  0  0  0  0  0  0  0
    0.7500   -3.8971    0.0000 C   0  0  0  0  0  0  0  0  0  0  0  0
    1.5000   -2.5981    0.0000 C   0  0  0  0  0  0  0  0  0  0  0  0
    0.7500   -1.2990    0.0000 C   0  0  0  0  0  0  0  0  0  0  0  0
    1.5000    0.0000    0.0000 C   0  0  0  0  0  0  0  0  0  0  0  0
    0.7500    1.2990    0.0000 C   0  0  0  0  0  0  0  0  0  0  0  0
   -0.7500    1.2990    0.0000 C   0  0  0  0  0  0  0  0  0  0  0  0
   -1.7537    2.4138    0.0000 C   0  0  0  0  0  0  0  0  0  0  0  0
   -1.4418    3.8810    0.0000 N   0  0  0  0  0  0  0  0  0  0  0  0
   -2.5565    4.8847    0.0000 C   0  0  0  0  0  0  0  0  0  0  0  0
   -3.9831    4.4211    0.0000 O   0  0  0  0  0  0  0  0  0  0  0  0
   -2.2447    6.3519    0.0000 C   0  0  0  0  0  0  0  0  0  0  0  0
   -2.7082    7.7785    0.0000 C   0  0  0  0  0  0  0  0  0  0  0  0
   -1.2410    7.4666    0.0000 C   0  0  0  0  0  0  0  0  0  0  0  0
   -3.1240    1.8037    0.0000 N   0  0  0  0  0  0  0  0  0  0  0  0
   -2.9672    0.3119    0.0000 N   0  0  0  0  0  0  0  0  0  0  0  0
   -1.5000    0.0000    0.0000 C   0  0  0  0  0  0  0  0  0  0  0  0
   -0.7500   -1.2990    0.0000 C   0  0  0  0  0  0  0  0  0  0  0  0
    3.0000   -2.5981    0.0000 C   0  0  0  0  0  0  0  0  0  0  0  0
    3.7500   -3.8971    0.0000 C   0  0  0  0  0  0  0  0  0  0  0  0
  1  2  1  0
  2  3  2  0
  2  4  2  0
  2  5  1  0
  5  6  2  0
  6  7  1  0
  7  8  2  0
  8  9  1  0
  9 10  2  0
 10 11  1  0
 11 12  2  0
 12 13  1  0
 13 14  1  0
 14 15  1  0
 15 16  2  0
 15 17  1  0
 17 18  1  0
 18 19  1  0
 13 20  2  0
 20 21  1  0
 21 22  1  0
 22 23  2  0
  8 24  1  0
 24 25  2  0
 25  5  1  0
 23  9  1  0
 22 12  1  0
 19 17  1  0
M  END
>  <Compound_ID>  (577) 
CHEMBL103098

>  <Molecule Name>  (577) 
nan

>  <Molecular Weight>  (577) 
356.41

>  <AlogP>  (577) 
2.23

>  <Smiles>  (577) 
NS(=O)(=O)c1ccc(-c2ccc3c(NC(=O)C4CC4)n[nH]c3c2)cc1

>  <Standard Type>  (577) 
Inhibition

>  <Standard Relation>  (577) 
'='

>  <Standard Units>  (577) 
%

>  <Standard Value>  (577) 
3.11

>  <Assay ChEMBL ID>  (577) 
CHEMBL1962241

>  <Assay Description>  (577) 
GSK_PKIS: ALK mean inhibition at 1 uM [Nanosyn]

>  <BAO Format ID>  (577) 
BAO_0000357

>  <BAO Label>  (577) 
single protein format

>  <Assay Organism>  (577) 
None

>  <Target ChEMBL ID>  (577) 
CHEMBL4247

>  <Target Name>  (577) 
ALK tyrosine kinase receptor

>  <Target Organism>  (577) 
Homo sapiens

>  <Target Type>  (577) 
SINGLE PROTEIN

>  <Document ChEMBL ID>  (577) 
CHEMBL1961873

>  <Source Description>  (577) 
GSK Published Kinase Inhibitor Set

>  <Document Journal>  (577) 
nan

>  <Document Year>  (577) 
nan

>  <Active>  (577) 
0.0

>  <bits>  (577) 
<rdkit.DataStructs.cDataStructs.ExplicitBitVect object at 0x000002422F1A90E0>

>  <Group>  (577) 
G2

$$$$

     RDKit          2D

 24 25  0  0  0  0  0  0  0  0999 V2000
    3.0000    0.0000    0.0000 C   0  0  0  0  0  0  0  0  0  0  0  0
    1.5000    0.0000    0.0000 C   0  0  0  0  0  0  0  0  0  0  0  0
    0.7500   -1.2990    0.0000 C   0  0  0  0  0  0  0  0  0  0  0  0
   -0.7500   -1.2990    0.0000 C   0  0  0  0  0  0  0  0  0  0  0  0
   -1.5000   -2.5981    0.0000 O   0  0  0  0  0  0  0  0  0  0  0  0
   -1.5000    0.0000    0.0000 C   0  0  0  0  0  0  0  0  0  0  0  0
   -0.7500    1.2990    0.0000 C   0  0  0  0  0  0  0  0  0  0  0  0
   -1.5000    2.5981    0.0000 C   0  0  0  0  0  0  0  0  0  0  0  0
    0.7500    1.2990    0.0000 C   0  0  0  0  0  0  0  0  0  0  0  0
    1.5000    2.5981    0.0000 C   0  0  0  0  0  0  0  0  0  0  0  0
    3.0000    2.5981    0.0000 C   0  0  0  0  0  0  0  0  0  0  0  0
    3.7500    3.8971    0.0000 C   0  0  0  0  0  0  0  0  0  0  0  0
    5.2500    3.8971    0.0000 C   0  0  0  0  0  0  0  0  0  0  0  0
    6.0000    5.1962    0.0000 N   0  0  0  0  0  0  0  0  0  0  0  0
    5.2500    6.4952    0.0000 C   0  0  0  0  0  0  0  0  0  0  0  0
    3.7500    6.4952    0.0000 C   0  0  0  0  0  0  0  0  0  0  0  0
    3.0000    7.7942    0.0000 C   0  0  0  0  0  0  0  0  0  0  0  0
    1.5000    7.7942    0.0000 O   0  0  0  0  0  0  0  0  0  0  0  0
    3.7500    9.0933    0.0000 O   0  0  0  0  0  0  0  0  0  0  0  0
    3.0000   10.3923    0.0000 C   0  0  0  0  0  0  0  0  0  0  0  0
    4.2990   11.1423    0.0000 C   0  0  0  0  0  0  0  0  0  0  0  0
    1.7010    9.6423    0.0000 C   0  0  0  0  0  0  0  0  0  0  0  0
    2.2500   11.6913    0.0000 C   0  0  0  0  0  0  0  0  0  0  0  0
    3.0000    5.1962    0.0000 C   0  0  0  0  0  0  0  0  0  0  0  0
  1  2  1  0
  2  3  2  0
  3  4  1  0
  4  5  1  0
  4  6  2  0
  6  7  1  0
  7  8  1  0
  7  9  2  0
  9 10  1  0
 10 11  2  0
 11 12  1  0
 12 13  2  0
 13 14  1  0
 14 15  2  0
 15 16  1  0
 16 17  1  0
 17 18  2  0
 17 19  1  0
 19 20  1  0
 20 21  1  0
 20 22  1  0
 20 23  1  0
 16 24  2  0
  9  2  1  0
 24 12  1  0
M  END
>  <Compound_ID>  (578) 
CHEMBL374060

>  <Molecule Name>  (578) 
GW439255X

>  <Molecular Weight>  (578) 
325.41

>  <AlogP>  (578) 
4.53

>  <Smiles>  (578) 
Cc1cc(O)cc(C)c1/C=C/c1cncc(C(=O)OC(C)(C)C)c1

>  <Standard Type>  (578) 
Inhibition

>  <Standard Relation>  (578) 
'='

>  <Standard Units>  (578) 
%

>  <Standard Value>  (578) 
5.54

>  <Assay ChEMBL ID>  (578) 
CHEMBL1962241

>  <Assay Description>  (578) 
GSK_PKIS: ALK mean inhibition at 1 uM [Nanosyn]

>  <BAO Format ID>  (578) 
BAO_0000357

>  <BAO Label>  (578) 
single protein format

>  <Assay Organism>  (578) 
None

>  <Target ChEMBL ID>  (578) 
CHEMBL4247

>  <Target Name>  (578) 
ALK tyrosine kinase receptor

>  <Target Organism>  (578) 
Homo sapiens

>  <Target Type>  (578) 
SINGLE PROTEIN

>  <Document ChEMBL ID>  (578) 
CHEMBL1961873

>  <Source Description>  (578) 
GSK Published Kinase Inhibitor Set

>  <Document Journal>  (578) 
nan

>  <Document Year>  (578) 
nan

>  <Active>  (578) 
0.0

>  <bits>  (578) 
<rdkit.DataStructs.cDataStructs.ExplicitBitVect object at 0x000002422F1A9310>

>  <Group>  (578) 
G2

$$$$

     RDKit          2D

 23 25  0  0  0  0  0  0  0  0999 V2000
   -8.2500   -1.2990    0.0000 C   0  0  0  0  0  0  0  0  0  0  0  0
   -9.0000   -2.5981    0.0000 C   0  0  0  0  0  0  0  0  0  0  0  0
   -8.2500   -3.8971    0.0000 S   0  0  0  0  0  0  0  0  0  0  0  0
   -6.9510   -3.1471    0.0000 O   0  0  0  0  0  0  0  0  0  0  0  0
   -9.5490   -4.6471    0.0000 O   0  0  0  0  0  0  0  0  0  0  0  0
   -7.5000   -5.1962    0.0000 N   0  0  0  0  0  0  0  0  0  0  0  0
   -6.0000   -5.1962    0.0000 C   0  0  0  0  0  0  0  0  0  0  0  0
   -5.2500   -3.8971    0.0000 C   0  0  0  0  0  0  0  0  0  0  0  0
   -3.7500   -3.8971    0.0000 C   0  0  0  0  0  0  0  0  0  0  0  0
   -3.0000   -5.1962    0.0000 C   0  0  0  0  0  0  0  0  0  0  0  0
   -1.5000   -5.1962    0.0000 C   0  0  0  0  0  0  0  0  0  0  0  0
   -0.7500   -3.8971    0.0000 C   0  0  0  0  0  0  0  0  0  0  0  0
    0.7500   -3.8971    0.0000 C   0  0  0  0  0  0  0  0  0  0  0  0
    1.5000   -2.5981    0.0000 C   0  0  0  0  0  0  0  0  0  0  0  0
    0.7500   -1.2990    0.0000 C   0  0  0  0  0  0  0  0  0  0  0  0
    1.5000    0.0000    0.0000 C   0  0  0  0  0  0  0  0  0  0  0  0
    0.7500    1.2990    0.0000 C   0  0  0  0  0  0  0  0  0  0  0  0
   -0.7500    1.2990    0.0000 C   0  0  0  0  0  0  0  0  0  0  0  0
   -1.5000    0.0000    0.0000 C   0  0  0  0  0  0  0  0  0  0  0  0
   -0.7500   -1.2990    0.0000 C   0  0  0  0  0  0  0  0  0  0  0  0
   -1.5000   -2.5981    0.0000 C   0  0  0  0  0  0  0  0  0  0  0  0
   -3.7500   -6.4952    0.0000 C   0  0  0  0  0  0  0  0  0  0  0  0
   -5.2500   -6.4952    0.0000 C   0  0  0  0  0  0  0  0  0  0  0  0
  1  2  2  0
  2  3  1  0
  3  4  2  0
  3  5  2  0
  3  6  1  0
  6  7  1  0
  7  8  2  0
  8  9  1  0
  9 10  2  0
 10 11  1  0
 11 12  1  0
 12 13  2  0
 13 14  1  0
 14 15  2  0
 15 16  1  0
 16 17  2  0
 17 18  1  0
 18 19  2  0
 19 20  1  0
 20 21  2  0
 10 22  1  0
 22 23  2  0
 23  7  1  0
 21 12  1  0
 20 15  1  0
M  END
>  <Compound_ID>  (579) 
CHEMBL4459587

>  <Molecule Name>  (579) 
nan

>  <Molecular Weight>  (579) 
323.42

>  <AlogP>  (579) 
4.32

>  <Smiles>  (579) 
C=CS(=O)(=O)Nc1ccc(Cc2ccc3ccccc3c2)cc1

>  <Standard Type>  (579) 
Inhibition

>  <Standard Relation>  (579) 
'='

>  <Standard Units>  (579) 
%

>  <Standard Value>  (579) 
0.0

>  <Assay ChEMBL ID>  (579) 
CHEMBL4378974

>  <Assay Description>  (579) 
Inhibition of recombinant human ALK (1058 to end residues) at 10 uM using KKKSPGEYVNIEF as substrate after 40 mins in presence of [gamma33P]ATP by scintillation counting method relative to control

>  <BAO Format ID>  (579) 
BAO_0000357

>  <BAO Label>  (579) 
single protein format

>  <Assay Organism>  (579) 
Homo sapiens

>  <Target ChEMBL ID>  (579) 
CHEMBL4247

>  <Target Name>  (579) 
ALK tyrosine kinase receptor

>  <Target Organism>  (579) 
Homo sapiens

>  <Target Type>  (579) 
SINGLE PROTEIN

>  <Document ChEMBL ID>  (579) 
CHEMBL4376829

>  <Source Description>  (579) 
Scientific Literature

>  <Document Journal>  (579) 
Eur J Med Chem

>  <Document Year>  (579) 
2019.0

>  <Active>  (579) 
0.0

>  <bits>  (579) 
<rdkit.DataStructs.cDataStructs.ExplicitBitVect object at 0x000002422F1A8740>

>  <Group>  (579) 
G2

$$$$

     RDKit          2D

 35 39  0  0  0  0  0  0  0  0999 V2000
   -8.2322   -0.7949    0.0000 C   0  0  0  0  0  0  0  0  0  0  0  0
   -6.8056   -1.2584    0.0000 C   0  0  0  0  0  0  0  0  0  0  0  0
   -6.4937   -2.7256    0.0000 O   0  0  0  0  0  0  0  0  0  0  0  0
   -5.0672   -3.1891    0.0000 C   0  0  0  0  0  0  0  0  0  0  0  0
   -3.8536   -2.3075    0.0000 C   0  0  0  0  0  0  0  0  0  0  0  0
   -2.6401   -3.1891    0.0000 C   0  0  0  0  0  0  0  0  0  0  0  0
   -1.2135   -2.7256    0.0000 N   0  0  0  0  0  0  0  0  0  0  0  0
   -0.0000   -3.6073    0.0000 C   0  0  0  0  0  0  0  0  0  0  0  0
    1.2135   -2.7256    0.0000 N   0  0  0  0  0  0  0  0  0  0  0  0
    0.7500   -1.2990    0.0000 C   0  0  0  0  0  0  0  0  0  0  0  0
    1.5000    0.0000    0.0000 C   0  0  0  0  0  0  0  0  0  0  0  0
    0.7500    1.2990    0.0000 C   0  0  0  0  0  0  0  0  0  0  0  0
   -0.7500    1.2990    0.0000 C   0  0  0  0  0  0  0  0  0  0  0  0
   -1.5000    2.5981    0.0000 O   0  0  0  0  0  0  0  0  0  0  0  0
   -0.7500    3.8971    0.0000 C   0  0  0  0  0  0  0  0  0  0  0  0
    0.7500    3.8971    0.0000 C   0  0  0  0  0  0  0  0  0  0  0  0
    1.5000    5.1962    0.0000 C   0  0  0  0  0  0  0  0  0  0  0  0
    0.7500    6.4952    0.0000 N   0  0  0  0  0  0  0  0  0  0  0  0
    1.5000    7.7942    0.0000 C   0  0  0  0  0  0  0  0  0  0  0  0
   -0.7500    6.4952    0.0000 C   0  0  0  0  0  0  0  0  0  0  0  0
   -1.5000    5.1962    0.0000 C   0  0  0  0  0  0  0  0  0  0  0  0
   -1.5000    0.0000    0.0000 C   0  0  0  0  0  0  0  0  0  0  0  0
   -0.7500   -1.2990    0.0000 C   0  0  0  0  0  0  0  0  0  0  0  0
   -3.1036   -4.6157    0.0000 S   0  0  0  0  0  0  0  0  0  0  0  0
   -4.6036   -4.6157    0.0000 C   0  0  0  0  0  0  0  0  0  0  0  0
   -5.4853   -5.8293    0.0000 C   0  0  0  0  0  0  0  0  0  0  0  0
   -4.8752   -7.1996    0.0000 N   0  0  0  0  0  0  0  0  0  0  0  0
   -6.9771   -5.6725    0.0000 O   0  0  0  0  0  0  0  0  0  0  0  0
   -5.6909   -0.2547    0.0000 C   0  0  0  0  0  0  0  0  0  0  0  0
   -4.2643   -0.7182    0.0000 C   0  0  0  0  0  0  0  0  0  0  0  0
   -3.1496    0.2855    0.0000 C   0  0  0  0  0  0  0  0  0  0  0  0
   -3.4615    1.7527    0.0000 C   0  0  0  0  0  0  0  0  0  0  0  0
   -4.8880    2.2162    0.0000 C   0  0  0  0  0  0  0  0  0  0  0  0
   -6.0028    1.2125    0.0000 C   0  0  0  0  0  0  0  0  0  0  0  0
   -7.4293    1.6760    0.0000 Cl  0  0  0  0  0  0  0  0  0  0  0  0
  2  1  1  6
  2  3  1  0
  3  4  1  0
  4  5  1  0
  5  6  2  0
  6  7  1  0
  7  8  1  0
  8  9  2  0
  9 10  1  0
 10 11  2  0
 11 12  1  0
 12 13  2  0
 13 14  1  0
 14 15  1  0
 15 16  1  0
 16 17  1  0
 17 18  1  0
 18 19  1  0
 18 20  1  0
 20 21  1  0
 13 22  1  0
 22 23  2  0
  6 24  1  0
 24 25  1  0
 25 26  1  0
 26 27  1  0
 26 28  2  0
  2 29  1  0
 29 30  2  0
 30 31  1  0
 31 32  2  0
 32 33  1  0
 33 34  2  0
 34 35  1  0
 25  4  2  0
 34 29  1  0
 23  7  1  0
 23 10  1  0
 21 15  1  0
M  END
>  <Compound_ID>  (580) 
CHEMBL1794070

>  <Molecule Name>  (580) 
GSK-579289A

>  <Molecular Weight>  (580) 
511.05

>  <AlogP>  (580) 
5.45

>  <Smiles>  (580) 
C[C@@H](Oc1cc(-n2cnc3ccc(OC4CCN(C)CC4)cc32)sc1C(N)=O)c1ccccc1Cl

>  <Standard Type>  (580) 
Inhibition

>  <Standard Relation>  (580) 
'='

>  <Standard Units>  (580) 
%

>  <Standard Value>  (580) 
-0.85

>  <Assay ChEMBL ID>  (580) 
CHEMBL1962240

>  <Assay Description>  (580) 
GSK_PKIS: ALK mean inhibition at 0.1 uM [Nanosyn]

>  <BAO Format ID>  (580) 
BAO_0000357

>  <BAO Label>  (580) 
single protein format

>  <Assay Organism>  (580) 
None

>  <Target ChEMBL ID>  (580) 
CHEMBL4247

>  <Target Name>  (580) 
ALK tyrosine kinase receptor

>  <Target Organism>  (580) 
Homo sapiens

>  <Target Type>  (580) 
SINGLE PROTEIN

>  <Document ChEMBL ID>  (580) 
CHEMBL1961873

>  <Source Description>  (580) 
GSK Published Kinase Inhibitor Set

>  <Document Journal>  (580) 
nan

>  <Document Year>  (580) 
nan

>  <Active>  (580) 
0.0

>  <bits>  (580) 
<rdkit.DataStructs.cDataStructs.ExplicitBitVect object at 0x000002422F1A9620>

>  <Group>  (580) 
G2

$$$$

     RDKit          2D

 33 37  0  0  0  0  0  0  0  0999 V2000
    3.7500   -1.2990    0.0000 C   0  0  0  0  0  0  0  0  0  0  0  0
    3.0000    0.0000    0.0000 O   0  0  0  0  0  0  0  0  0  0  0  0
    1.5000    0.0000    0.0000 C   0  0  0  0  0  0  0  0  0  0  0  0
    0.7500   -1.2990    0.0000 C   0  0  0  0  0  0  0  0  0  0  0  0
   -0.7500   -1.2990    0.0000 C   0  0  0  0  0  0  0  0  0  0  0  0
   -1.5000    0.0000    0.0000 C   0  0  0  0  0  0  0  0  0  0  0  0
   -3.0000    0.0000    0.0000 C   0  0  0  0  0  0  0  0  0  0  0  0
   -3.7500    1.2990    0.0000 C   0  0  0  0  0  0  0  0  0  0  0  0
   -5.2500    1.2990    0.0000 C   0  0  0  0  0  0  0  0  0  0  0  0
   -6.1317    0.0855    0.0000 C   0  0  0  0  0  0  0  0  0  0  0  0
   -5.6682   -1.3411    0.0000 C   0  0  0  0  0  0  0  0  0  0  0  0
   -6.6718   -2.4558    0.0000 C   0  0  0  0  0  0  0  0  0  0  0  0
   -6.2083   -3.8824    0.0000 C   0  0  0  0  0  0  0  0  0  0  0  0
   -4.7411   -4.1942    0.0000 N   0  0  0  0  0  0  0  0  0  0  0  0
   -3.7374   -3.0795    0.0000 C   0  0  0  0  0  0  0  0  0  0  0  0
   -4.2009   -1.6529    0.0000 C   0  0  0  0  0  0  0  0  0  0  0  0
   -7.5583    0.5490    0.0000 N   0  0  0  0  0  0  0  0  0  0  0  0
   -7.5583    2.0490    0.0000 C   0  0  0  0  0  0  0  0  0  0  0  0
   -8.7718    2.9307    0.0000 C   0  0  0  0  0  0  0  0  0  0  0  0
   -8.6150    4.4225    0.0000 C   0  0  0  0  0  0  0  0  0  0  0  0
   -9.8285    5.3042    0.0000 C   0  0  0  0  0  0  0  0  0  0  0  0
  -11.1988    4.6941    0.0000 C   0  0  0  0  0  0  0  0  0  0  0  0
  -12.4124    5.5757    0.0000 S   0  0  0  0  0  3  0  0  0  0  0  0
  -12.2556    7.0675    0.0000 C   0  0  0  0  0  0  0  0  0  0  0  0
  -13.7827    4.9656    0.0000 O   0  0  0  0  0  1  0  0  0  0  0  0
  -11.3556    3.2023    0.0000 C   0  0  0  0  0  0  0  0  0  0  0  0
  -10.1421    2.3206    0.0000 C   0  0  0  0  0  0  0  0  0  0  0  0
   -6.1317    2.5126    0.0000 N   0  0  0  0  0  0  0  0  0  0  0  0
   -5.6682    3.9391    0.0000 C   0  0  0  0  0  0  0  0  0  0  0  0
   -3.0000    2.5981    0.0000 C   0  0  0  0  0  0  0  0  0  0  0  0
   -1.5000    2.5981    0.0000 C   0  0  0  0  0  0  0  0  0  0  0  0
   -0.7500    1.2990    0.0000 C   0  0  0  0  0  0  0  0  0  0  0  0
    0.7500    1.2990    0.0000 C   0  0  0  0  0  0  0  0  0  0  0  0
  1  2  1  0
  2  3  1  0
  3  4  2  0
  4  5  1  0
  5  6  2  0
  6  7  1  0
  7  8  2  0
  8  9  1  0
  9 10  2  0
 10 11  1  0
 11 12  2  0
 12 13  1  0
 13 14  2  0
 14 15  1  0
 15 16  2  0
 10 17  1  0
 17 18  2  0
 18 19  1  0
 19 20  2  0
 20 21  1  0
 21 22  2  0
 22 23  1  0
 23 24  1  0
 23 25  1  0
 22 26  1  0
 26 27  2  0
 18 28  1  0
 28 29  1  0
  8 30  1  0
 30 31  2  0
 31 32  1  0
 32 33  2  0
 33  3  1  0
 32  6  1  0
 28  9  1  0
 16 11  1  0
 27 19  1  0
M  CHG  2  23   1  25  -1
M  END
>  <Compound_ID>  (581) 
CHEMBL399410

>  <Molecule Name>  (581) 
nan

>  <Molecular Weight>  (581) 
453.57

>  <AlogP>  (581) 
5.72

>  <Smiles>  (581) 
COc1ccc2cc(-c3c(-c4ccncc4)nc(-c4ccc([S+](C)[O-])cc4)n3C)ccc2c1

>  <Standard Type>  (581) 
Inhibition

>  <Standard Relation>  (581) 
'='

>  <Standard Units>  (581) 
%

>  <Standard Value>  (581) 
3.57

>  <Assay ChEMBL ID>  (581) 
CHEMBL1962241

>  <Assay Description>  (581) 
GSK_PKIS: ALK mean inhibition at 1 uM [Nanosyn]

>  <BAO Format ID>  (581) 
BAO_0000357

>  <BAO Label>  (581) 
single protein format

>  <Assay Organism>  (581) 
None

>  <Target ChEMBL ID>  (581) 
CHEMBL4247

>  <Target Name>  (581) 
ALK tyrosine kinase receptor

>  <Target Organism>  (581) 
Homo sapiens

>  <Target Type>  (581) 
SINGLE PROTEIN

>  <Document ChEMBL ID>  (581) 
CHEMBL1961873

>  <Source Description>  (581) 
GSK Published Kinase Inhibitor Set

>  <Document Journal>  (581) 
nan

>  <Document Year>  (581) 
nan

>  <Active>  (581) 
0.0

>  <bits>  (581) 
<rdkit.DataStructs.cDataStructs.ExplicitBitVect object at 0x000002422F1A94D0>

>  <Group>  (581) 
G2

$$$$

     RDKit          2D

 27 30  0  0  0  0  0  0  0  0999 V2000
   -3.0000   -5.1962    0.0000 O   0  0  0  0  0  0  0  0  0  0  0  0
   -3.7500   -3.8971    0.0000 C   0  0  0  0  0  0  0  0  0  0  0  0
   -3.0000   -2.5981    0.0000 N   0  0  0  0  0  0  0  0  0  0  0  0
   -1.5000   -2.5981    0.0000 C   0  0  0  0  0  0  0  0  0  0  0  0
   -0.7500   -3.8971    0.0000 C   0  0  0  0  0  0  0  0  0  0  0  0
    0.7500   -3.8971    0.0000 C   0  0  0  0  0  0  0  0  0  0  0  0
    1.5000   -5.1962    0.0000 S   0  0  0  0  0  0  0  0  0  0  0  0
    0.7500   -6.4952    0.0000 C   0  0  0  0  0  0  0  0  0  0  0  0
    1.3601   -7.8655    0.0000 N   0  0  0  0  0  0  0  0  0  0  0  0
    0.2454   -8.8692    0.0000 N   0  0  0  0  0  0  0  0  0  0  0  0
   -1.0537   -8.1192    0.0000 C   0  0  0  0  0  0  0  0  0  0  0  0
   -0.7418   -6.6520    0.0000 S   0  0  0  0  0  0  0  0  0  0  0  0
    1.5000   -2.5981    0.0000 C   0  0  0  0  0  0  0  0  0  0  0  0
    3.0000   -2.5981    0.0000 O   0  0  0  0  0  0  0  0  0  0  0  0
    0.7500   -1.2990    0.0000 C   0  0  0  0  0  0  0  0  0  0  0  0
    1.5000    0.0000    0.0000 C   0  0  0  0  0  0  0  0  0  0  0  0
    0.7500    1.2990    0.0000 C   0  0  0  0  0  0  0  0  0  0  0  0
   -0.7500    1.2990    0.0000 C   0  0  0  0  0  0  0  0  0  0  0  0
   -1.5000    0.0000    0.0000 C   0  0  0  0  0  0  0  0  0  0  0  0
   -0.7500   -1.2990    0.0000 C   0  0  0  0  0  0  0  0  0  0  0  0
   -5.2500   -3.8971    0.0000 C   0  0  0  0  0  0  0  0  0  0  0  0
   -6.0000   -2.5981    0.0000 C   0  0  0  0  0  0  0  0  0  0  0  0
   -7.5000   -2.5981    0.0000 C   0  0  0  0  0  0  0  0  0  0  0  0
   -8.2500   -3.8971    0.0000 C   0  0  0  0  0  0  0  0  0  0  0  0
   -9.7500   -3.8971    0.0000 Cl  0  0  0  0  0  0  0  0  0  0  0  0
   -7.5000   -5.1962    0.0000 C   0  0  0  0  0  0  0  0  0  0  0  0
   -6.0000   -5.1962    0.0000 C   0  0  0  0  0  0  0  0  0  0  0  0
  1  2  2  0
  2  3  1  0
  3  4  1  0
  4  5  2  0
  5  6  1  0
  6  7  1  0
  7  8  1  0
  8  9  2  0
  9 10  1  0
 10 11  2  0
 11 12  1  0
  6 13  2  0
 13 14  1  0
 13 15  1  0
 15 16  2  0
 16 17  1  0
 17 18  2  0
 18 19  1  0
 19 20  2  0
  2 21  1  0
 21 22  2  0
 22 23  1  0
 23 24  2  0
 24 25  1  0
 24 26  1  0
 26 27  2  0
 20  4  1  0
 27 21  1  0
 12  8  1  0
 20 15  1  0
M  END
>  <Compound_ID>  (582) 
CHEMBL2391417

>  <Molecule Name>  (582) 
nan

>  <Molecular Weight>  (582) 
413.91

>  <AlogP>  (582) 
5.45

>  <Smiles>  (582) 
O=C(Nc1cc(Sc2nncs2)c(O)c2ccccc12)c1ccc(Cl)cc1

>  <Standard Type>  (582) 
Inhibition

>  <Standard Relation>  (582) 
'='

>  <Standard Units>  (582) 
%

>  <Standard Value>  (582) 
4.2

>  <Assay ChEMBL ID>  (582) 
CHEMBL2394291

>  <Assay Description>  (582) 
Inhibition of ALK (unknown origin) at 10 uM after 30 mins by fluorescence assay

>  <BAO Format ID>  (582) 
BAO_0000357

>  <BAO Label>  (582) 
single protein format

>  <Assay Organism>  (582) 
Homo sapiens

>  <Target ChEMBL ID>  (582) 
CHEMBL4247

>  <Target Name>  (582) 
ALK tyrosine kinase receptor

>  <Target Organism>  (582) 
Homo sapiens

>  <Target Type>  (582) 
SINGLE PROTEIN

>  <Document ChEMBL ID>  (582) 
CHEMBL2390901

>  <Source Description>  (582) 
Scientific Literature

>  <Document Journal>  (582) 
Eur J Med Chem

>  <Document Year>  (582) 
2013.0

>  <Active>  (582) 
0.0

>  <bits>  (582) 
<rdkit.DataStructs.cDataStructs.ExplicitBitVect object at 0x000002422F1A9000>

>  <Group>  (582) 
G2

$$$$

     RDKit          2D

 27 30  0  0  0  0  0  0  0  0999 V2000
   -4.6904   -6.5871    0.0000 N   0  0  0  0  0  0  0  0  0  0  0  0
   -4.3786   -5.1199    0.0000 C   0  0  0  0  0  0  0  0  0  0  0  0
   -5.4933   -4.1162    0.0000 N   0  0  0  0  0  0  0  0  0  0  0  0
   -5.1814   -2.6490    0.0000 C   0  0  0  0  0  0  0  0  0  0  0  0
   -3.7548   -2.1855    0.0000 C   0  0  0  0  0  0  0  0  0  0  0  0
   -2.6401   -3.1891    0.0000 C   0  0  0  0  0  0  0  0  0  0  0  0
   -1.2135   -2.7256    0.0000 C   0  0  0  0  0  0  0  0  0  0  0  0
   -0.0000   -3.6073    0.0000 C   0  0  0  0  0  0  0  0  0  0  0  0
   -0.0000   -5.1073    0.0000 C   0  0  0  0  0  0  0  0  0  0  0  0
   -1.2990   -5.8573    0.0000 C   0  0  0  0  0  0  0  0  0  0  0  0
   -1.2990   -7.3573    0.0000 C   0  0  0  0  0  0  0  0  0  0  0  0
   -0.0000   -8.1073    0.0000 C   0  0  0  0  0  0  0  0  0  0  0  0
    0.0000   -9.6073    0.0000 F   0  0  0  0  0  0  0  0  0  0  0  0
    1.2990   -7.3573    0.0000 C   0  0  0  0  0  0  0  0  0  0  0  0
    1.2990   -5.8573    0.0000 C   0  0  0  0  0  0  0  0  0  0  0  0
    1.2135   -2.7256    0.0000 N   0  0  0  0  0  0  0  0  0  0  0  0
    0.7500   -1.2990    0.0000 N   0  0  0  0  0  0  0  0  0  0  0  0
    1.5000    0.0000    0.0000 C   0  0  0  0  0  0  0  0  0  0  0  0
    0.7500    1.2990    0.0000 C   0  0  0  0  0  0  0  0  0  0  0  0
    1.5000    2.5981    0.0000 C   0  0  0  0  0  0  0  0  0  0  0  0
    2.2500    3.8971    0.0000 F   0  0  0  0  0  0  0  0  0  0  0  0
    2.7990    1.8481    0.0000 F   0  0  0  0  0  0  0  0  0  0  0  0
    0.2010    3.3481    0.0000 F   0  0  0  0  0  0  0  0  0  0  0  0
   -0.7500    1.2990    0.0000 C   0  0  0  0  0  0  0  0  0  0  0  0
   -1.5000    0.0000    0.0000 C   0  0  0  0  0  0  0  0  0  0  0  0
   -0.7500   -1.2990    0.0000 C   0  0  0  0  0  0  0  0  0  0  0  0
   -2.9520   -4.6564    0.0000 N   0  0  0  0  0  0  0  0  0  0  0  0
  1  2  1  0
  2  3  2  0
  3  4  1  0
  4  5  2  0
  5  6  1  0
  6  7  1  0
  7  8  1  0
  8  9  1  0
  9 10  2  0
 10 11  1  0
 11 12  2  0
 12 13  1  0
 12 14  1  0
 14 15  2  0
  8 16  2  0
 16 17  1  0
 17 18  1  0
 18 19  2  0
 19 20  1  0
 20 21  1  0
 20 22  1  0
 20 23  1  0
 19 24  1  0
 24 25  2  0
 25 26  1  0
  6 27  2  0
 27  2  1  0
 26  7  2  0
 15  9  1  0
 26 17  1  0
M  END
>  <Compound_ID>  (583) 
CHEMBL1909402

>  <Molecule Name>  (583) 
GW568326X

>  <Molecular Weight>  (583) 
373.31

>  <AlogP>  (583) 
4.2

>  <Smiles>  (583) 
Nc1nccc(-c2c(-c3ccc(F)cc3)nn3cc(C(F)(F)F)ccc23)n1

>  <Standard Type>  (583) 
Inhibition

>  <Standard Relation>  (583) 
'='

>  <Standard Units>  (583) 
%

>  <Standard Value>  (583) 
5.16

>  <Assay ChEMBL ID>  (583) 
CHEMBL1962241

>  <Assay Description>  (583) 
GSK_PKIS: ALK mean inhibition at 1 uM [Nanosyn]

>  <BAO Format ID>  (583) 
BAO_0000357

>  <BAO Label>  (583) 
single protein format

>  <Assay Organism>  (583) 
None

>  <Target ChEMBL ID>  (583) 
CHEMBL4247

>  <Target Name>  (583) 
ALK tyrosine kinase receptor

>  <Target Organism>  (583) 
Homo sapiens

>  <Target Type>  (583) 
SINGLE PROTEIN

>  <Document ChEMBL ID>  (583) 
CHEMBL1961873

>  <Source Description>  (583) 
GSK Published Kinase Inhibitor Set

>  <Document Journal>  (583) 
nan

>  <Document Year>  (583) 
nan

>  <Active>  (583) 
0.0

>  <bits>  (583) 
<rdkit.DataStructs.cDataStructs.ExplicitBitVect object at 0x000002422F1A8F20>

>  <Group>  (583) 
G2

$$$$

     RDKit          2D

 26 29  0  0  0  0  0  0  0  0999 V2000
   -2.6401   -3.1891    0.0000 C   0  0  0  0  0  0  0  0  0  0  0  0
   -1.2135   -2.7256    0.0000 C   0  0  0  0  0  0  0  0  0  0  0  0
   -0.0000   -3.6073    0.0000 N   0  0  0  0  0  0  0  0  0  0  0  0
    1.2135   -2.7256    0.0000 C   0  0  0  0  0  0  0  0  0  0  0  0
    2.6401   -3.1891    0.0000 C   0  0  0  0  0  0  0  0  0  0  0  0
    2.9520   -4.6564    0.0000 C   0  0  0  0  0  0  0  0  0  0  0  0
    4.3786   -5.1199    0.0000 C   0  0  0  0  0  0  0  0  0  0  0  0
    5.4933   -4.1162    0.0000 C   0  0  0  0  0  0  0  0  0  0  0  0
    5.1814   -2.6490    0.0000 C   0  0  0  0  0  0  0  0  0  0  0  0
    3.7548   -2.1855    0.0000 C   0  0  0  0  0  0  0  0  0  0  0  0
    0.7500   -1.2990    0.0000 N   0  0  0  0  0  0  0  0  0  0  0  0
    1.5000    0.0000    0.0000 N   0  0  0  0  0  0  0  0  0  0  0  0
    0.7500    1.2990    0.0000 C   0  0  0  0  0  0  0  0  0  0  0  0
    1.5000    2.5981    0.0000 N   0  0  0  0  0  0  0  0  0  0  0  0
    3.0000    2.5981    0.0000 C   0  0  0  0  0  0  0  0  0  0  0  0
    3.7500    3.8971    0.0000 C   0  0  0  0  0  0  0  0  0  0  0  0
    5.2500    3.8971    0.0000 C   0  0  0  0  0  0  0  0  0  0  0  0
    6.0000    5.1962    0.0000 N   0  0  0  0  0  0  0  0  0  0  0  0
    7.5000    5.1962    0.0000 C   0  0  0  0  0  0  0  0  0  0  0  0
    8.2500    6.4952    0.0000 C   0  0  0  0  0  0  0  0  0  0  0  0
    7.5000    7.7942    0.0000 O   0  0  0  0  0  0  0  0  0  0  0  0
    6.0000    7.7942    0.0000 C   0  0  0  0  0  0  0  0  0  0  0  0
    5.2500    6.4952    0.0000 C   0  0  0  0  0  0  0  0  0  0  0  0
   -0.7500    1.2990    0.0000 N   0  0  0  0  0  0  0  0  0  0  0  0
   -1.5000    0.0000    0.0000 C   0  0  0  0  0  0  0  0  0  0  0  0
   -0.7500   -1.2990    0.0000 C   0  0  0  0  0  0  0  0  0  0  0  0
  1  2  1  0
  2  3  1  0
  3  4  2  0
  4  5  1  0
  5  6  2  0
  6  7  1  0
  7  8  2  0
  8  9  1  0
  9 10  2  0
  4 11  1  0
 11 12  1  0
 12 13  2  0
 13 14  1  0
 14 15  1  0
 15 16  1  0
 16 17  1  0
 17 18  1  0
 18 19  1  0
 19 20  1  0
 20 21  1  0
 21 22  1  0
 22 23  1  0
 13 24  1  0
 24 25  2  0
 25 26  1  0
 26  2  2  0
 10  5  1  0
 26 11  1  0
 23 18  1  0
M  END
>  <Compound_ID>  (584) 
CHEMBL486124

>  <Molecule Name>  (584) 
GW874091X

>  <Molecular Weight>  (584) 
352.44

>  <AlogP>  (584) 
2.23

>  <Smiles>  (584) 
Cc1nc(-c2ccccc2)n2nc(NCCCN3CCOCC3)ncc12

>  <Standard Type>  (584) 
Inhibition

>  <Standard Relation>  (584) 
'='

>  <Standard Units>  (584) 
%

>  <Standard Value>  (584) 
2.79

>  <Assay ChEMBL ID>  (584) 
CHEMBL1962240

>  <Assay Description>  (584) 
GSK_PKIS: ALK mean inhibition at 0.1 uM [Nanosyn]

>  <BAO Format ID>  (584) 
BAO_0000357

>  <BAO Label>  (584) 
single protein format

>  <Assay Organism>  (584) 
None

>  <Target ChEMBL ID>  (584) 
CHEMBL4247

>  <Target Name>  (584) 
ALK tyrosine kinase receptor

>  <Target Organism>  (584) 
Homo sapiens

>  <Target Type>  (584) 
SINGLE PROTEIN

>  <Document ChEMBL ID>  (584) 
CHEMBL1961873

>  <Source Description>  (584) 
GSK Published Kinase Inhibitor Set

>  <Document Journal>  (584) 
nan

>  <Document Year>  (584) 
nan

>  <Active>  (584) 
0.0

>  <bits>  (584) 
<rdkit.DataStructs.cDataStructs.ExplicitBitVect object at 0x000002422F1A8120>

>  <Group>  (584) 
G2

$$$$

     RDKit          2D

 35 37  0  0  0  0  0  0  0  0999 V2000
    9.7500   -3.8971    0.0000 C   0  0  0  0  0  0  0  0  0  0  0  0
    8.2500   -3.8971    0.0000 N   0  0  0  0  0  0  0  0  0  0  0  0
    7.5000   -5.1962    0.0000 C   0  0  0  0  0  0  0  0  0  0  0  0
    7.5000   -2.5981    0.0000 C   0  0  0  0  0  0  0  0  0  0  0  0
    6.0000   -2.5981    0.0000 C   0  0  0  0  0  0  0  0  0  0  0  0
    5.2500   -1.2990    0.0000 N   0  0  0  0  0  0  0  0  0  0  0  0
    3.7500   -1.2990    0.0000 C   0  0  0  0  0  0  0  0  0  0  0  0
    3.0000   -2.5981    0.0000 O   0  0  0  0  0  0  0  0  0  0  0  0
    3.0000    0.0000    0.0000 N   0  0  0  0  0  0  0  0  0  0  0  0
    1.5000    0.0000    0.0000 C   0  0  0  0  0  0  0  0  0  0  0  0
    0.7500   -1.2990    0.0000 C   0  0  0  0  0  0  0  0  0  0  0  0
   -0.7500   -1.2990    0.0000 C   0  0  0  0  0  0  0  0  0  0  0  0
   -1.5000    0.0000    0.0000 C   0  0  0  0  0  0  0  0  0  0  0  0
   -3.0000    0.0000    0.0000 N   0  0  0  0  0  0  0  0  0  0  0  0
   -3.7500    1.2990    0.0000 C   0  0  0  0  0  0  0  0  0  0  0  0
   -3.7500   -1.2990    0.0000 C   0  0  0  0  0  0  0  0  0  0  0  0
   -5.2500   -1.2990    0.0000 C   0  0  0  0  0  0  0  0  0  0  0  0
   -6.0000   -2.5981    0.0000 C   0  0  0  0  0  0  0  0  0  0  0  0
   -5.2500   -3.8971    0.0000 N   0  0  0  0  0  0  0  0  0  0  0  0
   -3.7500   -3.8971    0.0000 C   0  0  0  0  0  0  0  0  0  0  0  0
   -3.0000   -5.1962    0.0000 N   0  0  0  0  0  0  0  0  0  0  0  0
   -3.7500   -6.4952    0.0000 C   0  0  0  0  0  0  0  0  0  0  0  0
   -5.2500   -6.4952    0.0000 C   0  0  0  0  0  0  0  0  0  0  0  0
   -6.0000   -7.7942    0.0000 C   0  0  0  0  0  0  0  0  0  0  0  0
   -5.2500   -9.0933    0.0000 C   0  0  0  0  0  0  0  0  0  0  0  0
   -6.0000  -10.3923    0.0000 C   0  0  0  0  0  0  0  0  0  0  0  0
   -7.5000  -10.3923    0.0000 S   0  0  0  0  0  0  0  0  0  0  0  0
   -9.0000  -10.3923    0.0000 C   0  0  0  0  0  0  0  0  0  0  0  0
   -7.5000   -8.8923    0.0000 O   0  0  0  0  0  0  0  0  0  0  0  0
   -7.5000  -11.8923    0.0000 O   0  0  0  0  0  0  0  0  0  0  0  0
   -3.7500   -9.0933    0.0000 C   0  0  0  0  0  0  0  0  0  0  0  0
   -3.0000   -7.7942    0.0000 C   0  0  0  0  0  0  0  0  0  0  0  0
   -3.0000   -2.5981    0.0000 N   0  0  0  0  0  0  0  0  0  0  0  0
   -0.7500    1.2990    0.0000 C   0  0  0  0  0  0  0  0  0  0  0  0
    0.7500    1.2990    0.0000 C   0  0  0  0  0  0  0  0  0  0  0  0
  1  2  1  0
  2  3  1  0
  2  4  1  0
  4  5  1  0
  5  6  1  0
  6  7  1  0
  7  8  2  0
  7  9  1  0
  9 10  1  0
 10 11  2  0
 11 12  1  0
 12 13  2  0
 13 14  1  0
 14 15  1  0
 14 16  1  0
 16 17  2  0
 17 18  1  0
 18 19  2  0
 19 20  1  0
 20 21  1  0
 21 22  1  0
 22 23  2  0
 23 24  1  0
 24 25  2  0
 25 26  1  0
 26 27  1  0
 27 28  1  0
 27 29  2  0
 27 30  2  0
 25 31  1  0
 31 32  2  0
 20 33  2  0
 13 34  1  0
 34 35  2  0
 35 10  1  0
 33 16  1  0
 32 22  1  0
M  END
>  <Compound_ID>  (585) 
CHEMBL1909362

>  <Molecule Name>  (585) 
GW830900A

>  <Molecular Weight>  (585) 
534.09

>  <AlogP>  (585) 
3.22

>  <Smiles>  (585) 
CN(C)CCNC(=O)Nc1ccc(N(C)c2ccnc(Nc3ccc(CS(C)(=O)=O)cc3)n2)cc1

>  <Standard Type>  (585) 
Inhibition

>  <Standard Relation>  (585) 
'='

>  <Standard Units>  (585) 
%

>  <Standard Value>  (585) 
3.32

>  <Assay ChEMBL ID>  (585) 
CHEMBL1962240

>  <Assay Description>  (585) 
GSK_PKIS: ALK mean inhibition at 0.1 uM [Nanosyn]

>  <BAO Format ID>  (585) 
BAO_0000357

>  <BAO Label>  (585) 
single protein format

>  <Assay Organism>  (585) 
None

>  <Target ChEMBL ID>  (585) 
CHEMBL4247

>  <Target Name>  (585) 
ALK tyrosine kinase receptor

>  <Target Organism>  (585) 
Homo sapiens

>  <Target Type>  (585) 
SINGLE PROTEIN

>  <Document ChEMBL ID>  (585) 
CHEMBL1961873

>  <Source Description>  (585) 
GSK Published Kinase Inhibitor Set

>  <Document Journal>  (585) 
nan

>  <Document Year>  (585) 
nan

>  <Active>  (585) 
0.0

>  <bits>  (585) 
<rdkit.DataStructs.cDataStructs.ExplicitBitVect object at 0x000002422F1A9150>

>  <Group>  (585) 
G2

$$$$

     RDKit          2D

 24 26  0  0  0  0  0  0  0  0999 V2000
    7.5000   -7.7942    0.0000 C   0  0  0  0  0  0  0  0  0  0  0  0
    8.2500   -6.4952    0.0000 O   0  0  0  0  0  0  0  0  0  0  0  0
    7.5000   -5.1962    0.0000 C   0  0  0  0  0  0  0  0  0  0  0  0
    6.0000   -5.1962    0.0000 C   0  0  0  0  0  0  0  0  0  0  0  0
    5.2500   -3.8971    0.0000 C   0  0  0  0  0  0  0  0  0  0  0  0
    3.7500   -3.8971    0.0000 C   0  0  0  0  0  0  0  0  0  0  0  0
    3.0000   -2.5981    0.0000 N   0  0  0  0  0  0  0  0  0  0  0  0
    1.5000   -2.5981    0.0000 N   0  0  0  0  0  0  0  0  0  0  0  0
    0.7500   -1.2990    0.0000 C   0  0  0  0  0  0  0  0  0  0  0  0
    1.5000    0.0000    0.0000 N   0  0  0  0  0  0  0  0  0  0  0  0
    0.7500    1.2990    0.0000 C   0  0  0  0  0  0  0  0  0  0  0  0
   -0.7500    1.2990    0.0000 N   0  0  0  0  0  0  0  0  0  0  0  0
   -1.5000    0.0000    0.0000 C   0  0  0  0  0  0  0  0  0  0  0  0
   -0.7500   -1.2990    0.0000 C   0  0  0  0  0  0  0  0  0  0  0  0
   -1.7537   -2.4138    0.0000 C   0  0  0  0  0  0  0  0  0  0  0  0
   -3.1240   -1.8037    0.0000 N   0  0  0  0  0  0  0  0  0  0  0  0
   -2.9672   -0.3119    0.0000 N   0  0  0  0  0  0  0  0  0  0  0  0
   -4.0819    0.6918    0.0000 C   0  0  0  0  0  0  0  0  0  0  0  0
   -5.5085    0.2283    0.0000 C   0  0  0  0  0  0  0  0  0  0  0  0
   -3.7701    2.1590    0.0000 C   0  0  0  0  0  0  0  0  0  0  0  0
    6.0000   -2.5981    0.0000 C   0  0  0  0  0  0  0  0  0  0  0  0
    7.5000   -2.5981    0.0000 C   0  0  0  0  0  0  0  0  0  0  0  0
    8.2500   -3.8971    0.0000 C   0  0  0  0  0  0  0  0  0  0  0  0
    9.7500   -3.8971    0.0000 O   0  0  0  0  0  0  0  0  0  0  0  0
  1  2  1  0
  2  3  1  0
  3  4  2  0
  4  5  1  0
  5  6  1  0
  6  7  2  0
  7  8  1  0
  8  9  1  0
  9 10  2  0
 10 11  1  0
 11 12  2  0
 12 13  1  0
 13 14  2  0
 14 15  1  0
 15 16  2  0
 16 17  1  0
 17 18  1  0
 18 19  1  0
 18 20  1  0
  5 21  2  0
 21 22  1  0
 22 23  2  0
 23 24  1  0
 23  3  1  0
 14  9  1  0
 17 13  1  0
M  END
>  <Compound_ID>  (586) 
CHEMBL63728

>  <Molecule Name>  (586) 
GW644007X

>  <Molecular Weight>  (586) 
326.36

>  <AlogP>  (586) 
2.57

>  <Smiles>  (586) 
COc1cc(/C=N/Nc2ncnc3c2cnn3C(C)C)ccc1O

>  <Standard Type>  (586) 
Inhibition

>  <Standard Relation>  (586) 
'='

>  <Standard Units>  (586) 
%

>  <Standard Value>  (586) 
4.12

>  <Assay ChEMBL ID>  (586) 
CHEMBL1962241

>  <Assay Description>  (586) 
GSK_PKIS: ALK mean inhibition at 1 uM [Nanosyn]

>  <BAO Format ID>  (586) 
BAO_0000357

>  <BAO Label>  (586) 
single protein format

>  <Assay Organism>  (586) 
None

>  <Target ChEMBL ID>  (586) 
CHEMBL4247

>  <Target Name>  (586) 
ALK tyrosine kinase receptor

>  <Target Organism>  (586) 
Homo sapiens

>  <Target Type>  (586) 
SINGLE PROTEIN

>  <Document ChEMBL ID>  (586) 
CHEMBL1961873

>  <Source Description>  (586) 
GSK Published Kinase Inhibitor Set

>  <Document Journal>  (586) 
nan

>  <Document Year>  (586) 
nan

>  <Active>  (586) 
0.0

>  <bits>  (586) 
<rdkit.DataStructs.cDataStructs.ExplicitBitVect object at 0x000002422F1A9380>

>  <Group>  (586) 
G2

$$$$

     RDKit          2D

 33 38  0  0  0  0  0  0  0  0999 V2000
   -2.0276   -0.8744    0.0000 F   0  0  0  0  0  0  0  0  0  0  0  0
   -2.4911   -2.3009    0.0000 C   0  0  0  0  0  0  0  0  0  0  0  0
   -1.4874   -3.4157    0.0000 C   0  0  0  0  0  0  0  0  0  0  0  0
   -1.9509   -4.8423    0.0000 C   0  0  0  0  0  0  0  0  0  0  0  0
   -3.4182   -5.1541    0.0000 C   0  0  0  0  0  0  0  0  0  0  0  0
   -3.8817   -6.5807    0.0000 C   0  0  0  0  0  0  0  0  0  0  0  0
   -5.3083   -7.0442    0.0000 N   0  0  0  0  0  0  0  0  0  0  0  0
   -5.3083   -8.5442    0.0000 N   0  0  0  0  0  0  0  0  0  0  0  0
   -6.4230   -9.5479    0.0000 N   0  0  0  0  0  0  0  0  0  0  0  0
   -6.1111  -11.0151    0.0000 C   0  0  0  0  0  0  0  0  0  0  0  0
   -4.6845  -11.4787    0.0000 C   0  0  0  0  0  0  0  0  0  0  0  0
   -3.5698  -10.4750    0.0000 C   0  0  0  0  0  0  0  0  0  0  0  0
   -3.8817   -9.0078    0.0000 C   0  0  0  0  0  0  0  0  0  0  0  0
   -3.0000   -7.7942    0.0000 C   0  0  0  0  0  0  0  0  0  0  0  0
   -1.5000   -7.7942    0.0000 C   0  0  0  0  0  0  0  0  0  0  0  0
   -0.7500   -9.0933    0.0000 C   0  0  0  0  0  0  0  0  0  0  0  0
    0.7500   -9.0933    0.0000 C   0  0  0  0  0  0  0  0  0  0  0  0
    1.5000   -7.7942    0.0000 N   0  0  0  0  0  0  0  0  0  0  0  0
    0.7500   -6.4952    0.0000 C   0  0  0  0  0  0  0  0  0  0  0  0
    1.5000   -5.1962    0.0000 N   0  0  0  0  0  0  0  0  0  0  0  0
    0.7500   -3.8971    0.0000 C   0  0  0  0  0  0  0  0  0  0  0  0
   -0.7500   -3.8971    0.0000 C   0  0  0  0  0  0  0  0  0  0  0  0
   -1.5000   -2.5981    0.0000 C   0  0  0  0  0  0  0  0  0  0  0  0
   -0.7500   -1.2990    0.0000 C   0  0  0  0  0  0  0  0  0  0  0  0
    0.7500   -1.2990    0.0000 C   0  0  0  0  0  0  0  0  0  0  0  0
    1.5000   -2.5981    0.0000 C   0  0  0  0  0  0  0  0  0  0  0  0
    1.5000    0.0000    0.0000 O   0  0  0  0  0  0  0  0  0  0  0  0
    0.7500    1.2990    0.0000 C   0  0  0  0  0  0  0  0  0  0  0  0
   -0.7500    1.2990    0.0000 C   0  0  0  0  0  0  0  0  0  0  0  0
   -1.5000    0.0000    0.0000 O   0  0  0  0  0  0  0  0  0  0  0  0
   -0.7500   -6.4952    0.0000 N   0  0  0  0  0  0  0  0  0  0  0  0
   -4.4218   -4.0394    0.0000 C   0  0  0  0  0  0  0  0  0  0  0  0
   -3.9583   -2.6128    0.0000 C   0  0  0  0  0  0  0  0  0  0  0  0
  1  2  1  0
  2  3  2  0
  3  4  1  0
  4  5  2  0
  5  6  1  0
  6  7  2  0
  7  8  1  0
  8  9  1  0
  9 10  2  0
 10 11  1  0
 11 12  2  0
 12 13  1  0
 13 14  2  0
 14 15  1  0
 15 16  2  0
 16 17  1  0
 17 18  2  0
 18 19  1  0
 19 20  1  0
 20 21  1  0
 21 22  2  0
 22 23  1  0
 23 24  2  0
 24 25  1  0
 25 26  2  0
 25 27  1  0
 27 28  1  0
 28 29  1  0
 29 30  1  0
 19 31  2  0
  5 32  1  0
 32 33  2  0
 33  2  1  0
 14  6  1  0
 31 15  1  0
 13  8  1  0
 26 21  1  0
 30 24  1  0
M  END
>  <Compound_ID>  (587) 
CHEMBL365297

>  <Molecule Name>  (587) 
GW827099X

>  <Molecular Weight>  (587) 
440.44

>  <AlogP>  (587) 
4.51

>  <Smiles>  (587) 
Fc1ccc(-c2nn3ncccc3c2-c2ccnc(Nc3ccc4c(c3)OCCO4)n2)cc1

>  <Standard Type>  (587) 
Inhibition

>  <Standard Relation>  (587) 
'='

>  <Standard Units>  (587) 
%

>  <Standard Value>  (587) 
7.86

>  <Assay ChEMBL ID>  (587) 
CHEMBL1962241

>  <Assay Description>  (587) 
GSK_PKIS: ALK mean inhibition at 1 uM [Nanosyn]

>  <BAO Format ID>  (587) 
BAO_0000357

>  <BAO Label>  (587) 
single protein format

>  <Assay Organism>  (587) 
None

>  <Target ChEMBL ID>  (587) 
CHEMBL4247

>  <Target Name>  (587) 
ALK tyrosine kinase receptor

>  <Target Organism>  (587) 
Homo sapiens

>  <Target Type>  (587) 
SINGLE PROTEIN

>  <Document ChEMBL ID>  (587) 
CHEMBL1961873

>  <Source Description>  (587) 
GSK Published Kinase Inhibitor Set

>  <Document Journal>  (587) 
nan

>  <Document Year>  (587) 
nan

>  <Active>  (587) 
0.0

>  <bits>  (587) 
<rdkit.DataStructs.cDataStructs.ExplicitBitVect object at 0x000002422F1A80B0>

>  <Group>  (587) 
G2

$$$$

     RDKit          2D

 22 25  0  0  0  0  0  0  0  0999 V2000
   -0.0000   -5.1073    0.0000 O   0  0  0  0  0  0  0  0  0  0  0  0
   -0.0000   -3.6073    0.0000 C   0  0  0  0  0  0  0  0  0  0  0  0
    1.2135   -2.7256    0.0000 N   0  0  0  0  0  0  0  0  0  0  0  0
    0.7500   -1.2990    0.0000 C   0  0  0  0  0  0  0  0  0  0  0  0
    1.5000    0.0000    0.0000 C   0  0  0  0  0  0  0  0  0  0  0  0
    0.7500    1.2990    0.0000 C   0  0  0  0  0  0  0  0  0  0  0  0
   -0.7500    1.2990    0.0000 C   0  0  0  0  0  0  0  0  0  0  0  0
   -1.5000    0.0000    0.0000 C   0  0  0  0  0  0  0  0  0  0  0  0
   -0.7500   -1.2990    0.0000 C   0  0  0  0  0  0  0  0  0  0  0  0
   -1.2135   -2.7256    0.0000 C   0  0  0  0  0  0  0  0  0  0  0  0
   -2.6401   -3.1891    0.0000 C   0  0  0  0  0  0  0  0  0  0  0  0
   -2.9520   -4.6564    0.0000 N   0  0  0  0  0  0  0  0  0  0  0  0
   -4.3786   -5.1199    0.0000 C   0  0  0  0  0  0  0  0  0  0  0  0
   -5.4933   -4.1162    0.0000 C   0  0  0  0  0  0  0  0  0  0  0  0
   -6.9199   -4.5797    0.0000 C   0  0  0  0  0  0  0  0  0  0  0  0
   -7.2317   -6.0469    0.0000 C   0  0  0  0  0  0  0  0  0  0  0  0
   -8.5308   -6.7969    0.0000 N   0  0  0  0  0  0  0  0  0  0  0  0
   -8.2189   -8.2642    0.0000 C   0  0  0  0  0  0  0  0  0  0  0  0
   -9.2226   -9.3789    0.0000 O   0  0  0  0  0  0  0  0  0  0  0  0
   -6.7271   -8.4210    0.0000 N   0  0  0  0  0  0  0  0  0  0  0  0
   -6.1170   -7.0506    0.0000 C   0  0  0  0  0  0  0  0  0  0  0  0
   -4.6904   -6.5871    0.0000 C   0  0  0  0  0  0  0  0  0  0  0  0
  1  2  2  0
  2  3  1  0
  3  4  1  0
  4  5  2  0
  5  6  1  0
  6  7  2  0
  7  8  1  0
  8  9  2  0
  9 10  1  0
 10 11  2  0
 11 12  1  0
 12 13  1  0
 13 14  2  0
 14 15  1  0
 15 16  2  0
 16 17  1  0
 17 18  1  0
 18 19  2  0
 18 20  1  0
 20 21  1  0
 21 22  2  0
 10  2  1  0
 22 13  1  0
  9  4  1  0
 21 16  1  0
M  END
>  <Compound_ID>  (588) 
CHEMBL1794057

>  <Molecule Name>  (588) 
GW284408X

>  <Molecular Weight>  (588) 
292.3

>  <AlogP>  (588) 
2.26

>  <Smiles>  (588) 
O=C1Nc2ccccc2/C1=C/Nc1ccc2[nH]c(=O)[nH]c2c1

>  <Standard Type>  (588) 
Inhibition

>  <Standard Relation>  (588) 
'='

>  <Standard Units>  (588) 
%

>  <Standard Value>  (588) 
2.88

>  <Assay ChEMBL ID>  (588) 
CHEMBL1962240

>  <Assay Description>  (588) 
GSK_PKIS: ALK mean inhibition at 0.1 uM [Nanosyn]

>  <BAO Format ID>  (588) 
BAO_0000357

>  <BAO Label>  (588) 
single protein format

>  <Assay Organism>  (588) 
None

>  <Target ChEMBL ID>  (588) 
CHEMBL4247

>  <Target Name>  (588) 
ALK tyrosine kinase receptor

>  <Target Organism>  (588) 
Homo sapiens

>  <Target Type>  (588) 
SINGLE PROTEIN

>  <Document ChEMBL ID>  (588) 
CHEMBL1961873

>  <Source Description>  (588) 
GSK Published Kinase Inhibitor Set

>  <Document Journal>  (588) 
nan

>  <Document Year>  (588) 
nan

>  <Active>  (588) 
0.0

>  <bits>  (588) 
<rdkit.DataStructs.cDataStructs.ExplicitBitVect object at 0x000002422F16E490>

>  <Group>  (588) 
G2

$$$$

     RDKit          2D

 38 42  0  0  0  0  0  0  0  0999 V2000
   -1.3632  -12.1594    0.0000 C   0  0  0  0  0  0  0  0  0  0  0  0
   -1.2064  -10.6676    0.0000 S   0  0  0  0  0  0  0  0  0  0  0  0
    0.2854  -10.8244    0.0000 O   0  0  0  0  0  0  0  0  0  0  0  0
   -2.6982  -10.5109    0.0000 O   0  0  0  0  0  0  0  0  0  0  0  0
   -1.0496   -9.1759    0.0000 C   0  0  0  0  0  0  0  0  0  0  0  0
    0.3207   -8.5658    0.0000 C   0  0  0  0  0  0  0  0  0  0  0  0
    0.4775   -7.0740    0.0000 N   0  0  0  0  0  0  0  0  0  0  0  0
    1.8478   -6.4639    0.0000 C   0  0  0  0  0  0  0  0  0  0  0  0
    2.0046   -4.9721    0.0000 C   0  0  0  0  0  0  0  0  0  0  0  0
    3.3037   -4.2221    0.0000 C   0  0  0  0  0  0  0  0  0  0  0  0
    2.9918   -2.7549    0.0000 C   0  0  0  0  0  0  0  0  0  0  0  0
    1.5000   -2.5981    0.0000 C   0  0  0  0  0  0  0  0  0  0  0  0
    0.7500   -1.2990    0.0000 C   0  0  0  0  0  0  0  0  0  0  0  0
    1.5000    0.0000    0.0000 C   0  0  0  0  0  0  0  0  0  0  0  0
    0.7500    1.2990    0.0000 C   0  0  0  0  0  0  0  0  0  0  0  0
   -0.7500    1.2990    0.0000 C   0  0  0  0  0  0  0  0  0  0  0  0
   -1.5000    2.5981    0.0000 N   0  0  0  0  0  0  0  0  0  0  0  0
   -3.0000    2.5981    0.0000 C   0  0  0  0  0  0  0  0  0  0  0  0
   -3.7500    1.2990    0.0000 N   0  0  0  0  0  0  0  0  0  0  0  0
   -3.0000    0.0000    0.0000 C   0  0  0  0  0  0  0  0  0  0  0  0
   -3.7500   -1.2990    0.0000 N   0  0  0  0  0  0  0  0  0  0  0  0
   -5.2500   -1.2990    0.0000 C   0  0  0  0  0  0  0  0  0  0  0  0
   -6.0000    0.0000    0.0000 C   0  0  0  0  0  0  0  0  0  0  0  0
   -7.5000    0.0000    0.0000 C   0  0  0  0  0  0  0  0  0  0  0  0
   -8.2500   -1.2990    0.0000 C   0  0  0  0  0  0  0  0  0  0  0  0
   -9.7500   -1.2990    0.0000 O   0  0  0  0  0  0  0  0  0  0  0  0
  -10.5000    0.0000    0.0000 C   0  0  0  0  0  0  0  0  0  0  0  0
  -12.0000    0.0000    0.0000 C   0  0  0  0  0  0  0  0  0  0  0  0
  -12.7500    1.2990    0.0000 C   0  0  0  0  0  0  0  0  0  0  0  0
  -14.2500    1.2990    0.0000 C   0  0  0  0  0  0  0  0  0  0  0  0
  -15.0000    0.0000    0.0000 C   0  0  0  0  0  0  0  0  0  0  0  0
  -14.2500   -1.2990    0.0000 C   0  0  0  0  0  0  0  0  0  0  0  0
  -12.7500   -1.2990    0.0000 C   0  0  0  0  0  0  0  0  0  0  0  0
   -7.5000   -2.5981    0.0000 C   0  0  0  0  0  0  0  0  0  0  0  0
   -6.0000   -2.5981    0.0000 C   0  0  0  0  0  0  0  0  0  0  0  0
   -1.5000    0.0000    0.0000 C   0  0  0  0  0  0  0  0  0  0  0  0
   -0.7500   -1.2990    0.0000 C   0  0  0  0  0  0  0  0  0  0  0  0
    0.8899   -3.9684    0.0000 O   0  0  0  0  0  0  0  0  0  0  0  0
  1  2  1  0
  2  3  2  0
  2  4  2  0
  2  5  1  0
  5  6  1  0
  6  7  1  0
  7  8  1  0
  8  9  1  0
  9 10  2  0
 10 11  1  0
 11 12  2  0
 12 13  1  0
 13 14  2  0
 14 15  1  0
 15 16  2  0
 16 17  1  0
 17 18  2  0
 18 19  1  0
 19 20  2  0
 20 21  1  0
 21 22  1  0
 22 23  2  0
 23 24  1  0
 24 25  2  0
 25 26  1  0
 26 27  1  0
 27 28  1  0
 28 29  2  0
 29 30  1  0
 30 31  2  0
 31 32  1  0
 32 33  2  0
 25 34  1  0
 34 35  2  0
 20 36  1  0
 36 37  2  0
 12 38  1  0
 38  9  1  0
 37 13  1  0
 36 16  1  0
 35 22  1  0
 33 28  1  0
M  END
>  <Compound_ID>  (589) 
CHEMBL1909385

>  <Molecule Name>  (589) 
GW458787A

>  <Molecular Weight>  (589) 
565.1

>  <AlogP>  (589) 
5.35

>  <Smiles>  (589) 
CS(=O)(=O)CCNCc1ccc(-c2ccc3ncnc(Nc4ccc(OCc5ccccc5)cc4)c3c2)o1

>  <Standard Type>  (589) 
Inhibition

>  <Standard Relation>  (589) 
'='

>  <Standard Units>  (589) 
%

>  <Standard Value>  (589) 
2.76

>  <Assay ChEMBL ID>  (589) 
CHEMBL1962241

>  <Assay Description>  (589) 
GSK_PKIS: ALK mean inhibition at 1 uM [Nanosyn]

>  <BAO Format ID>  (589) 
BAO_0000357

>  <BAO Label>  (589) 
single protein format

>  <Assay Organism>  (589) 
None

>  <Target ChEMBL ID>  (589) 
CHEMBL4247

>  <Target Name>  (589) 
ALK tyrosine kinase receptor

>  <Target Organism>  (589) 
Homo sapiens

>  <Target Type>  (589) 
SINGLE PROTEIN

>  <Document ChEMBL ID>  (589) 
CHEMBL1961873

>  <Source Description>  (589) 
GSK Published Kinase Inhibitor Set

>  <Document Journal>  (589) 
nan

>  <Document Year>  (589) 
nan

>  <Active>  (589) 
0.0

>  <bits>  (589) 
<rdkit.DataStructs.cDataStructs.ExplicitBitVect object at 0x000002422F16EEA0>

>  <Group>  (589) 
G2

$$$$

     RDKit          2D

 30 34  0  0  0  0  0  0  0  0999 V2000
    3.7500   -1.2990    0.0000 C   0  0  0  0  0  0  0  0  0  0  0  0
    3.0000    0.0000    0.0000 N   0  0  0  0  0  0  0  0  0  0  0  0
    3.7500    1.2990    0.0000 C   0  0  0  0  0  0  0  0  0  0  0  0
    1.5000    0.0000    0.0000 C   0  0  0  0  0  0  0  0  0  0  0  0
    0.7500   -1.2990    0.0000 C   0  0  0  0  0  0  0  0  0  0  0  0
   -0.7500   -1.2990    0.0000 C   0  0  0  0  0  0  0  0  0  0  0  0
   -1.5000   -2.5981    0.0000 C   0  0  0  0  0  0  0  0  0  0  0  0
   -0.7500   -3.8971    0.0000 N   0  0  0  0  0  0  0  0  0  0  0  0
   -1.5000   -5.1962    0.0000 C   0  0  0  0  0  0  0  0  0  0  0  0
   -3.0000   -5.1962    0.0000 C   0  0  0  0  0  0  0  0  0  0  0  0
   -3.7500   -6.4952    0.0000 C   0  0  0  0  0  0  0  0  0  0  0  0
   -3.0000   -7.7942    0.0000 C   0  0  0  0  0  0  0  0  0  0  0  0
   -1.5000   -7.7942    0.0000 C   0  0  0  0  0  0  0  0  0  0  0  0
   -1.0365   -9.2208    0.0000 C   0  0  0  0  0  0  0  0  0  0  0  0
   -2.2500  -10.1025    0.0000 N   0  0  0  0  0  0  0  0  0  0  0  0
   -3.4635   -9.2208    0.0000 N   0  0  0  0  0  0  0  0  0  0  0  0
   -4.8901   -9.6843    0.0000 C   0  0  0  0  0  0  0  0  0  0  0  0
   -5.2020  -11.1516    0.0000 C   0  0  0  0  0  0  0  0  0  0  0  0
   -6.6286  -11.6151    0.0000 C   0  0  0  0  0  0  0  0  0  0  0  0
   -6.9404  -13.0823    0.0000 C   0  0  0  0  0  0  0  0  0  0  0  0
   -5.8257  -14.0860    0.0000 C   0  0  0  0  0  0  0  0  0  0  0  0
   -4.3991  -13.6225    0.0000 C   0  0  0  0  0  0  0  0  0  0  0  0
   -4.0873  -12.1553    0.0000 C   0  0  0  0  0  0  0  0  0  0  0  0
   -0.7500   -6.4952    0.0000 C   0  0  0  0  0  0  0  0  0  0  0  0
   -3.0000   -2.5981    0.0000 N   0  0  0  0  0  0  0  0  0  0  0  0
   -3.7500   -1.2990    0.0000 C   0  0  0  0  0  0  0  0  0  0  0  0
   -3.0000    0.0000    0.0000 N   0  0  0  0  0  0  0  0  0  0  0  0
   -1.5000    0.0000    0.0000 C   0  0  0  0  0  0  0  0  0  0  0  0
   -0.7500    1.2990    0.0000 C   0  0  0  0  0  0  0  0  0  0  0  0
    0.7500    1.2990    0.0000 N   0  0  0  0  0  0  0  0  0  0  0  0
  1  2  1  0
  2  3  1  0
  2  4  1  0
  4  5  2  0
  5  6  1  0
  6  7  2  0
  7  8  1  0
  8  9  1  0
  9 10  2  0
 10 11  1  0
 11 12  2  0
 12 13  1  0
 13 14  1  0
 14 15  2  0
 15 16  1  0
 16 17  1  0
 17 18  1  0
 18 19  2  0
 19 20  1  0
 20 21  2  0
 21 22  1  0
 22 23  2  0
 13 24  2  0
  7 25  1  0
 25 26  2  0
 26 27  1  0
 27 28  2  0
 28 29  1  0
 29 30  2  0
 30  4  1  0
 28  6  1  0
 24  9  1  0
 16 12  1  0
 23 18  1  0
M  END
>  <Compound_ID>  (590) 
CHEMBL30432

>  <Molecule Name>  (590) 
GW282974X

>  <Molecular Weight>  (590) 
395.47

>  <AlogP>  (590) 
4.23

>  <Smiles>  (590) 
CN(C)c1cc2c(Nc3ccc4c(cnn4Cc4ccccc4)c3)ncnc2cn1

>  <Standard Type>  (590) 
Inhibition

>  <Standard Relation>  (590) 
'='

>  <Standard Units>  (590) 
%

>  <Standard Value>  (590) 
2.86

>  <Assay ChEMBL ID>  (590) 
CHEMBL1962240

>  <Assay Description>  (590) 
GSK_PKIS: ALK mean inhibition at 0.1 uM [Nanosyn]

>  <BAO Format ID>  (590) 
BAO_0000357

>  <BAO Label>  (590) 
single protein format

>  <Assay Organism>  (590) 
None

>  <Target ChEMBL ID>  (590) 
CHEMBL4247

>  <Target Name>  (590) 
ALK tyrosine kinase receptor

>  <Target Organism>  (590) 
Homo sapiens

>  <Target Type>  (590) 
SINGLE PROTEIN

>  <Document ChEMBL ID>  (590) 
CHEMBL1961873

>  <Source Description>  (590) 
GSK Published Kinase Inhibitor Set

>  <Document Journal>  (590) 
nan

>  <Document Year>  (590) 
nan

>  <Active>  (590) 
0.0

>  <bits>  (590) 
<rdkit.DataStructs.cDataStructs.ExplicitBitVect object at 0x000002422F16FA70>

>  <Group>  (590) 
G2

$$$$

     RDKit          2D

 26 29  0  0  0  0  0  0  0  0999 V2000
  -11.0821    2.6487    0.0000 N   0  0  0  0  0  0  0  0  0  0  0  0
   -9.9674    1.6450    0.0000 S   0  0  0  0  0  0  0  0  0  0  0  0
   -8.9637    2.7597    0.0000 O   0  0  0  0  0  0  0  0  0  0  0  0
  -10.9711    0.5303    0.0000 O   0  0  0  0  0  0  0  0  0  0  0  0
   -8.8527    0.6413    0.0000 C   0  0  0  0  0  0  0  0  0  0  0  0
   -7.4261    1.1048    0.0000 C   0  0  0  0  0  0  0  0  0  0  0  0
   -6.3114    0.1011    0.0000 C   0  0  0  0  0  0  0  0  0  0  0  0
   -6.6232   -1.3661    0.0000 C   0  0  0  0  0  0  0  0  0  0  0  0
   -5.5085   -2.3698    0.0000 N   0  0  0  0  0  0  0  0  0  0  0  0
   -4.0819   -1.9062    0.0000 N   0  0  0  0  0  0  0  0  0  0  0  0
   -2.9672   -2.9099    0.0000 C   0  0  0  0  0  0  0  0  0  0  0  0
   -3.1240   -4.4017    0.0000 C   0  0  0  0  0  0  0  0  0  0  0  0
   -4.4231   -5.1517    0.0000 O   0  0  0  0  0  0  0  0  0  0  0  0
   -1.7537   -5.0118    0.0000 N   0  0  0  0  0  0  0  0  0  0  0  0
   -0.7500   -3.8971    0.0000 C   0  0  0  0  0  0  0  0  0  0  0  0
    0.7500   -3.8971    0.0000 C   0  0  0  0  0  0  0  0  0  0  0  0
    1.5000   -2.5981    0.0000 C   0  0  0  0  0  0  0  0  0  0  0  0
    0.7500   -1.2990    0.0000 C   0  0  0  0  0  0  0  0  0  0  0  0
    1.5000    0.0000    0.0000 N   0  0  0  0  0  0  0  0  0  0  0  0
    0.7500    1.2990    0.0000 C   0  0  0  0  0  0  0  0  0  0  0  0
   -0.7500    1.2990    0.0000 C   0  0  0  0  0  0  0  0  0  0  0  0
   -1.5000    0.0000    0.0000 C   0  0  0  0  0  0  0  0  0  0  0  0
   -0.7500   -1.2990    0.0000 C   0  0  0  0  0  0  0  0  0  0  0  0
   -1.5000   -2.5981    0.0000 C   0  0  0  0  0  0  0  0  0  0  0  0
   -8.0498   -1.8296    0.0000 C   0  0  0  0  0  0  0  0  0  0  0  0
   -9.1645   -0.8259    0.0000 C   0  0  0  0  0  0  0  0  0  0  0  0
  1  2  1  0
  2  3  2  0
  2  4  2  0
  2  5  1  0
  5  6  2  0
  6  7  1  0
  7  8  2  0
  8  9  1  0
  9 10  1  0
 10 11  2  0
 11 12  1  0
 12 13  2  0
 12 14  1  0
 14 15  1  0
 15 16  2  0
 16 17  1  0
 17 18  2  0
 18 19  1  0
 19 20  2  0
 20 21  1  0
 21 22  2  0
 22 23  1  0
 23 24  2  0
  8 25  1  0
 25 26  2  0
 26  5  1  0
 24 11  1  0
 24 15  1  0
 23 18  1  0
M  END
>  <Compound_ID>  (591) 
CHEMBL409892

>  <Molecule Name>  (591) 
GW305178X

>  <Molecular Weight>  (591) 
367.39

>  <AlogP>  (591) 
1.65

>  <Smiles>  (591) 
NS(=O)(=O)c1ccc(N/N=C2\C(=O)Nc3ccc4ncccc4c32)cc1

>  <Standard Type>  (591) 
Inhibition

>  <Standard Relation>  (591) 
'='

>  <Standard Units>  (591) 
%

>  <Standard Value>  (591) 
3.06

>  <Assay ChEMBL ID>  (591) 
CHEMBL1962240

>  <Assay Description>  (591) 
GSK_PKIS: ALK mean inhibition at 0.1 uM [Nanosyn]

>  <BAO Format ID>  (591) 
BAO_0000357

>  <BAO Label>  (591) 
single protein format

>  <Assay Organism>  (591) 
None

>  <Target ChEMBL ID>  (591) 
CHEMBL4247

>  <Target Name>  (591) 
ALK tyrosine kinase receptor

>  <Target Organism>  (591) 
Homo sapiens

>  <Target Type>  (591) 
SINGLE PROTEIN

>  <Document ChEMBL ID>  (591) 
CHEMBL1961873

>  <Source Description>  (591) 
GSK Published Kinase Inhibitor Set

>  <Document Journal>  (591) 
nan

>  <Document Year>  (591) 
nan

>  <Active>  (591) 
0.0

>  <bits>  (591) 
<rdkit.DataStructs.cDataStructs.ExplicitBitVect object at 0x000002422F16DF50>

>  <Group>  (591) 
G2

$$$$

     RDKit          2D

 35 38  0  0  0  0  0  0  0  0999 V2000
    6.0000   -2.5981    0.0000 C   0  0  0  0  0  0  0  0  0  0  0  0
    5.2500   -1.2990    0.0000 N   0  0  0  0  0  0  0  0  0  0  0  0
    3.7500   -1.2990    0.0000 C   0  0  0  0  0  0  0  0  0  0  0  0
    3.0000   -2.5981    0.0000 O   0  0  0  0  0  0  0  0  0  0  0  0
    3.0000    0.0000    0.0000 C   0  0  0  0  0  0  0  0  0  0  0  0
    1.5000    0.0000    0.0000 C   0  0  0  0  0  0  0  0  0  0  0  0
    0.7500   -1.2990    0.0000 C   0  0  0  0  0  0  0  0  0  0  0  0
   -0.7500   -1.2990    0.0000 C   0  0  0  0  0  0  0  0  0  0  0  0
   -1.5000   -2.5981    0.0000 C   0  0  0  0  0  0  0  0  0  0  0  0
   -3.0000   -2.5981    0.0000 C   0  0  0  0  0  0  0  0  0  0  0  0
   -3.7500   -3.8971    0.0000 C   0  0  0  0  0  0  0  0  0  0  0  0
   -3.0000   -5.1962    0.0000 C   0  0  0  0  0  0  0  0  0  0  0  0
   -3.7500   -6.4952    0.0000 F   0  0  0  0  0  0  0  0  0  0  0  0
   -1.5000   -5.1962    0.0000 C   0  0  0  0  0  0  0  0  0  0  0  0
   -0.7500   -6.4952    0.0000 F   0  0  0  0  0  0  0  0  0  0  0  0
   -0.7500   -3.8971    0.0000 C   0  0  0  0  0  0  0  0  0  0  0  0
   -1.5000    0.0000    0.0000 C   0  0  0  0  0  0  0  0  0  0  0  0
   -3.0000    0.0000    0.0000 N   0  0  0  0  0  0  0  0  0  0  0  0
   -3.7500    1.2990    0.0000 C   0  0  0  0  0  0  0  0  0  0  0  0
   -3.0000    2.5981    0.0000 O   0  0  0  0  0  0  0  0  0  0  0  0
   -5.2500    1.2990    0.0000 C   0  0  0  0  0  0  0  0  0  0  0  0
   -6.1317    0.0855    0.0000 C   0  0  0  0  0  0  0  0  0  0  0  0
   -7.5583    0.5490    0.0000 C   0  0  0  0  0  0  0  0  0  0  0  0
   -8.7718   -0.3326    0.0000 C   0  0  0  0  0  0  0  0  0  0  0  0
   -8.7718   -1.8326    0.0000 C   0  0  0  0  0  0  0  0  0  0  0  0
   -7.5583   -2.7143    0.0000 Cl  0  0  0  0  0  0  0  0  0  0  0  0
  -10.1984   -2.2962    0.0000 C   0  0  0  0  0  0  0  0  0  0  0  0
  -11.0801   -1.0826    0.0000 N   0  0  0  0  0  0  0  0  0  0  0  0
  -10.1984    0.1309    0.0000 N   0  0  0  0  0  0  0  0  0  0  0  0
  -10.6619    1.5575    0.0000 C   0  0  0  0  0  0  0  0  0  0  0  0
   -7.5583    2.0490    0.0000 C   0  0  0  0  0  0  0  0  0  0  0  0
   -8.7718    2.9307    0.0000 Cl  0  0  0  0  0  0  0  0  0  0  0  0
   -6.1317    2.5126    0.0000 O   0  0  0  0  0  0  0  0  0  0  0  0
   -0.7500    1.2990    0.0000 C   0  0  0  0  0  0  0  0  0  0  0  0
    0.7500    1.2990    0.0000 N   0  0  0  0  0  0  0  0  0  0  0  0
  1  2  1  0
  2  3  1  0
  3  4  2  0
  3  5  1  0
  6  5  1  6
  6  7  1  0
  7  8  1  0
  8  9  1  1
  9 10  2  0
 10 11  1  0
 11 12  2  0
 12 13  1  0
 12 14  1  0
 14 15  1  0
 14 16  2  0
  8 17  1  0
 17 18  1  6
 18 19  1  0
 19 20  2  0
 19 21  1  0
 21 22  2  0
 22 23  1  0
 23 24  1  0
 24 25  2  0
 25 26  1  0
 25 27  1  0
 27 28  2  0
 28 29  1  0
 29 30  1  0
 23 31  2  0
 31 32  1  0
 31 33  1  0
 17 34  1  0
 34 35  1  0
 35  6  1  0
 16  9  1  0
 33 21  1  0
 29 24  1  0
M  END
>  <Compound_ID>  (592) 
CHEMBL4440965

>  <Molecule Name>  (592) 
nan

>  <Molecular Weight>  (592) 
526.37

>  <AlogP>  (592) 
3.65

>  <Smiles>  (592) 
CNC(=O)C[C@@H]1C[C@@H](c2ccc(F)c(F)c2)[C@H](NC(=O)c2cc(-c3c(Cl)cnn3C)c(Cl)o2)CN1

>  <Standard Type>  (592) 
Inhibition

>  <Standard Relation>  (592) 
'='

>  <Standard Units>  (592) 
%

>  <Standard Value>  (592) 
8.5

>  <Assay ChEMBL ID>  (592) 
CHEMBL4407376

>  <Assay Description>  (592) 
Inhibition of human ALK at 0.5 uM by mobility shift assay relative to control

>  <BAO Format ID>  (592) 
BAO_0000357

>  <BAO Label>  (592) 
single protein format

>  <Assay Organism>  (592) 
Homo sapiens

>  <Target ChEMBL ID>  (592) 
CHEMBL4247

>  <Target Name>  (592) 
ALK tyrosine kinase receptor

>  <Target Organism>  (592) 
Homo sapiens

>  <Target Type>  (592) 
SINGLE PROTEIN

>  <Document ChEMBL ID>  (592) 
CHEMBL4406807

>  <Source Description>  (592) 
Scientific Literature

>  <Document Journal>  (592) 
J Med Chem

>  <Document Year>  (592) 
2019.0

>  <Active>  (592) 
0.0

>  <bits>  (592) 
<rdkit.DataStructs.cDataStructs.ExplicitBitVect object at 0x000002422F16EF80>

>  <Group>  (592) 
G2

$$$$

     RDKit          2D

 26 29  0  0  0  0  0  0  0  0999 V2000
    3.0000    0.0000    0.0000 N   0  0  0  0  0  0  0  0  0  0  0  0
    1.5000    0.0000    0.0000 C   0  0  0  0  0  0  0  0  0  0  0  0
    0.7500   -1.2990    0.0000 N   0  0  0  0  0  0  0  0  0  0  0  0
   -0.7500   -1.2990    0.0000 C   0  0  0  0  0  0  0  0  0  0  0  0
   -1.5000    0.0000    0.0000 C   0  0  0  0  0  0  0  0  0  0  0  0
   -0.7500    1.2990    0.0000 C   0  0  0  0  0  0  0  0  0  0  0  0
   -1.5000    2.5981    0.0000 C   0  0  0  0  0  0  0  0  0  0  0  0
   -2.9918    2.7549    0.0000 C   0  0  0  0  0  0  0  0  0  0  0  0
   -3.9955    1.6402    0.0000 C   0  0  0  0  0  0  0  0  0  0  0  0
   -5.4627    1.9520    0.0000 C   0  0  0  0  0  0  0  0  0  0  0  0
   -6.4664    0.8373    0.0000 C   0  0  0  0  0  0  0  0  0  0  0  0
   -6.0029   -0.5893    0.0000 C   0  0  0  0  0  0  0  0  0  0  0  0
   -7.0066   -1.7040    0.0000 F   0  0  0  0  0  0  0  0  0  0  0  0
   -4.5356   -0.9012    0.0000 C   0  0  0  0  0  0  0  0  0  0  0  0
   -3.5320    0.2136    0.0000 C   0  0  0  0  0  0  0  0  0  0  0  0
   -3.3037    4.2221    0.0000 N   0  0  0  0  0  0  0  0  0  0  0  0
   -2.0046    4.9721    0.0000 C   0  0  0  0  0  0  0  0  0  0  0  0
   -0.8899    3.9684    0.0000 N   0  0  0  0  0  0  0  0  0  0  0  0
    0.5773    4.2803    0.0000 C   0  0  0  0  0  0  0  0  0  0  0  0
    1.5810    3.1655    0.0000 C   0  0  0  0  0  0  0  0  0  0  0  0
    3.0482    3.4774    0.0000 C   0  0  0  0  0  0  0  0  0  0  0  0
    3.5118    4.9040    0.0000 C   0  0  0  0  0  0  0  0  0  0  0  0
    4.9790    5.2159    0.0000 O   0  0  0  0  0  0  0  0  0  0  0  0
    2.5081    6.0187    0.0000 C   0  0  0  0  0  0  0  0  0  0  0  0
    1.0409    5.7068    0.0000 C   0  0  0  0  0  0  0  0  0  0  0  0
    0.7500    1.2990    0.0000 N   0  0  0  0  0  0  0  0  0  0  0  0
  1  2  1  0
  2  3  2  0
  3  4  1  0
  4  5  2  0
  5  6  1  0
  6  7  1  0
  7  8  2  0
  8  9  1  0
  9 10  2  0
 10 11  1  0
 11 12  2  0
 12 13  1  0
 12 14  1  0
 14 15  2  0
  8 16  1  0
 16 17  2  0
 17 18  1  0
 18 19  1  0
 19 20  1  0
 20 21  1  0
 21 22  1  0
 22 23  1  0
 22 24  1  0
 24 25  1  0
  6 26  2  0
 26  2  1  0
 18  7  1  0
 25 19  1  0
 15  9  1  0
M  END
>  <Compound_ID>  (593) 
CHEMBL1888586

>  <Molecule Name>  (593) 
nan

>  <Molecular Weight>  (593) 
353.4

>  <AlogP>  (593) 
3.2

>  <Smiles>  (593) 
Nc1nccc(-c2c(-c3ccc(F)cc3)ncn2C2CCC(O)CC2)n1

>  <Standard Type>  (593) 
Inhibition

>  <Standard Relation>  (593) 
'='

>  <Standard Units>  (593) 
%

>  <Standard Value>  (593) 
-2.24

>  <Assay ChEMBL ID>  (593) 
CHEMBL1962240

>  <Assay Description>  (593) 
GSK_PKIS: ALK mean inhibition at 0.1 uM [Nanosyn]

>  <BAO Format ID>  (593) 
BAO_0000357

>  <BAO Label>  (593) 
single protein format

>  <Assay Organism>  (593) 
None

>  <Target ChEMBL ID>  (593) 
CHEMBL4247

>  <Target Name>  (593) 
ALK tyrosine kinase receptor

>  <Target Organism>  (593) 
Homo sapiens

>  <Target Type>  (593) 
SINGLE PROTEIN

>  <Document ChEMBL ID>  (593) 
CHEMBL1961873

>  <Source Description>  (593) 
GSK Published Kinase Inhibitor Set

>  <Document Journal>  (593) 
nan

>  <Document Year>  (593) 
nan

>  <Active>  (593) 
0.0

>  <bits>  (593) 
<rdkit.DataStructs.cDataStructs.ExplicitBitVect object at 0x000002422F16FD80>

>  <Group>  (593) 
G2

$$$$

     RDKit          2D

 31 36  0  0  0  0  0  0  0  0999 V2000
   -0.5773   -4.2803    0.0000 C   0  0  0  0  0  0  0  0  0  0  0  0
    0.8899   -3.9684    0.0000 C   0  0  0  0  0  0  0  0  0  0  0  0
    2.0046   -4.9721    0.0000 N   0  0  0  0  0  0  0  0  0  0  0  0
    3.3037   -4.2221    0.0000 N   0  0  0  0  0  0  0  0  0  0  0  0
    2.9918   -2.7549    0.0000 C   0  0  0  0  0  0  0  0  0  0  0  0
    3.9955   -1.6402    0.0000 C   0  0  0  0  0  0  0  0  0  0  0  0
    4.3073   -0.1729    0.0000 C   0  0  0  0  0  0  0  0  0  0  0  0
    5.4221   -1.1766    0.0000 C   0  0  0  0  0  0  0  0  0  0  0  0
    1.5000   -2.5981    0.0000 C   0  0  0  0  0  0  0  0  0  0  0  0
    0.7500   -1.2990    0.0000 C   0  0  0  0  0  0  0  0  0  0  0  0
    1.5000    0.0000    0.0000 C   0  0  0  0  0  0  0  0  0  0  0  0
    0.7500    1.2990    0.0000 C   0  0  0  0  0  0  0  0  0  0  0  0
   -0.7500    1.2990    0.0000 C   0  0  0  0  0  0  0  0  0  0  0  0
   -1.7537    2.4138    0.0000 C   0  0  0  0  0  0  0  0  0  0  0  0
   -1.4418    3.8810    0.0000 C   0  0  0  0  0  0  0  0  0  0  0  0
   -0.0152    4.3445    0.0000 C   0  0  0  0  0  0  0  0  0  0  0  0
    0.2966    5.8117    0.0000 C   0  0  0  0  0  0  0  0  0  0  0  0
   -0.8181    6.8154    0.0000 C   0  0  0  0  0  0  0  0  0  0  0  0
   -0.5062    8.2826    0.0000 N   0  0  0  0  0  0  0  0  0  0  0  0
    0.9204    8.7462    0.0000 C   0  0  0  0  0  0  0  0  0  0  0  0
    1.2322   10.2134    0.0000 C   0  0  0  0  0  0  0  0  0  0  0  0
    0.1175   11.2171    0.0000 N   0  0  0  0  0  0  0  0  0  0  0  0
    0.4294   12.6843    0.0000 C   0  0  0  0  0  0  0  0  0  0  0  0
   -1.3091   10.7536    0.0000 C   0  0  0  0  0  0  0  0  0  0  0  0
   -1.6209    9.2863    0.0000 C   0  0  0  0  0  0  0  0  0  0  0  0
   -2.2447    6.3519    0.0000 N   0  0  0  0  0  0  0  0  0  0  0  0
   -2.5565    4.8847    0.0000 C   0  0  0  0  0  0  0  0  0  0  0  0
   -3.1240    1.8037    0.0000 N   0  0  0  0  0  0  0  0  0  0  0  0
   -2.9672    0.3119    0.0000 N   0  0  0  0  0  0  0  0  0  0  0  0
   -1.5000    0.0000    0.0000 C   0  0  0  0  0  0  0  0  0  0  0  0
   -0.7500   -1.2990    0.0000 C   0  0  0  0  0  0  0  0  0  0  0  0
  1  2  1  0
  2  3  1  0
  3  4  1  0
  4  5  2  0
  5  6  1  0
  6  7  1  0
  7  8  1  0
  5  9  1  0
  9 10  1  0
 10 11  2  0
 11 12  1  0
 12 13  2  0
 13 14  1  0
 14 15  1  0
 15 16  2  0
 16 17  1  0
 17 18  2  0
 18 19  1  0
 19 20  1  0
 20 21  1  0
 21 22  1  0
 22 23  1  0
 22 24  1  0
 24 25  1  0
 18 26  1  0
 26 27  2  0
 14 28  2  0
 28 29  1  0
 29 30  1  0
 30 31  2  0
  9  2  2  0
 31 10  1  0
  8  6  1  0
 30 13  1  0
 27 15  1  0
 25 19  1  0
M  END
>  <Compound_ID>  (594) 
CHEMBL4125807

>  <Molecule Name>  (594) 
nan

>  <Molecular Weight>  (594) 
413.53

>  <AlogP>  (594) 
3.95

>  <Smiles>  (594) 
Cc1[nH]nc(C2CC2)c1-c1ccc2c(-c3ccc(N4CCN(C)CC4)nc3)n[nH]c2c1

>  <Standard Type>  (594) 
Inhibition

>  <Standard Relation>  (594) 
'='

>  <Standard Units>  (594) 
%

>  <Standard Value>  (594) 
6.7

>  <Assay ChEMBL ID>  (594) 
CHEMBL4120651

>  <Assay Description>  (594) 
Inhibition of ALK (unknown origin) at 0.19 uM relative to control

>  <BAO Format ID>  (594) 
BAO_0000357

>  <BAO Label>  (594) 
single protein format

>  <Assay Organism>  (594) 
Homo sapiens

>  <Target ChEMBL ID>  (594) 
CHEMBL4247

>  <Target Name>  (594) 
ALK tyrosine kinase receptor

>  <Target Organism>  (594) 
Homo sapiens

>  <Target Type>  (594) 
SINGLE PROTEIN

>  <Document ChEMBL ID>  (594) 
CHEMBL4118098

>  <Source Description>  (594) 
Scientific Literature

>  <Document Journal>  (594) 
Bioorg Med Chem Lett

>  <Document Year>  (594) 
2017.0

>  <Active>  (594) 
0.0

>  <bits>  (594) 
<rdkit.DataStructs.cDataStructs.ExplicitBitVect object at 0x000002422F16FBC0>

>  <Group>  (594) 
G2

$$$$

     RDKit          2D

 32 35  0  0  0  0  0  0  0  0999 V2000
    8.2500   -3.8971    0.0000 C   0  0  0  0  0  0  0  0  0  0  0  0
    7.5000   -2.5981    0.0000 O   0  0  0  0  0  0  0  0  0  0  0  0
    6.0000   -2.5981    0.0000 C   0  0  0  0  0  0  0  0  0  0  0  0
    5.2500   -1.2990    0.0000 C   0  0  0  0  0  0  0  0  0  0  0  0
    3.7500   -1.2990    0.0000 N   0  0  0  0  0  0  0  0  0  0  0  0
    3.0000    0.0000    0.0000 C   0  0  0  0  0  0  0  0  0  0  0  0
    3.7500    1.2990    0.0000 O   0  0  0  0  0  0  0  0  0  0  0  0
    1.5000    0.0000    0.0000 C   0  0  0  0  0  0  0  0  0  0  0  0
    0.7500   -1.2990    0.0000 C   0  0  0  0  0  0  0  0  0  0  0  0
   -0.7500   -1.2990    0.0000 C   0  0  0  0  0  0  0  0  0  0  0  0
   -1.5000    0.0000    0.0000 C   0  0  0  0  0  0  0  0  0  0  0  0
   -0.7500    1.2990    0.0000 C   0  0  0  0  0  0  0  0  0  0  0  0
    0.7500    1.2990    0.0000 C   0  0  0  0  0  0  0  0  0  0  0  0
   -1.7537    2.4138    0.0000 N   0  0  0  0  0  0  0  0  0  0  0  0
   -3.1240    1.8037    0.0000 C   0  0  0  0  0  0  0  0  0  0  0  0
   -4.4231    2.5537    0.0000 C   0  0  0  0  0  0  0  0  0  0  0  0
   -5.7934    1.9435    0.0000 C   0  0  0  0  0  0  0  0  0  0  0  0
   -6.7971    3.0583    0.0000 N   0  0  0  0  0  0  0  0  0  0  0  0
   -6.0471    4.3573    0.0000 C   0  0  0  0  0  0  0  0  0  0  0  0
   -6.6572    5.7276    0.0000 C   0  0  0  0  0  0  0  0  0  0  0  0
   -5.7755    6.9411    0.0000 C   0  0  0  0  0  0  0  0  0  0  0  0
   -6.3856    8.3115    0.0000 C   0  0  0  0  0  0  0  0  0  0  0  0
   -7.8774    8.4683    0.0000 C   0  0  0  0  0  0  0  0  0  0  0  0
   -8.4875    9.8386    0.0000 Cl  0  0  0  0  0  0  0  0  0  0  0  0
   -8.7591    7.2547    0.0000 C   0  0  0  0  0  0  0  0  0  0  0  0
   -8.1490    5.8844    0.0000 C   0  0  0  0  0  0  0  0  0  0  0  0
   -4.5798    4.0454    0.0000 N   0  0  0  0  0  0  0  0  0  0  0  0
   -2.9672    0.3119    0.0000 N   0  0  0  0  0  0  0  0  0  0  0  0
   -4.0819   -0.6918    0.0000 C   0  0  0  0  0  0  0  0  0  0  0  0
   -3.7701   -2.1590    0.0000 C   0  0  0  0  0  0  0  0  0  0  0  0
   -4.8848   -3.1627    0.0000 O   0  0  0  0  0  0  0  0  0  0  0  0
   -4.5729   -4.6300    0.0000 C   0  0  0  0  0  0  0  0  0  0  0  0
  1  2  1  0
  2  3  1  0
  3  4  1  0
  4  5  1  0
  5  6  1  0
  6  7  2  0
  6  8  1  0
  8  9  2  0
  9 10  1  0
 10 11  2  0
 11 12  1  0
 12 13  2  0
 12 14  1  0
 14 15  2  0
 15 16  1  0
 16 17  2  0
 17 18  1  0
 18 19  2  0
 19 20  1  0
 20 21  2  0
 21 22  1  0
 22 23  2  0
 23 24  1  0
 23 25  1  0
 25 26  2  0
 19 27  1  0
 15 28  1  0
 28 29  1  0
 29 30  1  0
 30 31  1  0
 31 32  1  0
 13  8  1  0
 27 16  1  0
 28 11  1  0
 26 20  1  0
M  END
>  <Compound_ID>  (595) 
CHEMBL3628628

>  <Molecule Name>  (595) 
nan

>  <Molecular Weight>  (595) 
453.93

>  <AlogP>  (595) 
3.77

>  <Smiles>  (595) 
COCCNC(=O)c1ccc2c(c1)nc(-c1cnc(-c3ccc(Cl)cc3)[nH]1)n2CCOC

>  <Standard Type>  (595) 
Inhibition

>  <Standard Relation>  (595) 
'='

>  <Standard Units>  (595) 
%

>  <Standard Value>  (595) 
0.02

>  <Assay ChEMBL ID>  (595) 
CHEMBL3631718

>  <Assay Description>  (595) 
Inhibition of ALK (unknown origin) at 10 uM after 120 mins P33 radiolabeled kinase activity assay

>  <BAO Format ID>  (595) 
BAO_0000357

>  <BAO Label>  (595) 
single protein format

>  <Assay Organism>  (595) 
Homo sapiens

>  <Target ChEMBL ID>  (595) 
CHEMBL4247

>  <Target Name>  (595) 
ALK tyrosine kinase receptor

>  <Target Organism>  (595) 
Homo sapiens

>  <Target Type>  (595) 
SINGLE PROTEIN

>  <Document ChEMBL ID>  (595) 
CHEMBL3627608

>  <Source Description>  (595) 
Scientific Literature

>  <Document Journal>  (595) 
Bioorg Med Chem

>  <Document Year>  (595) 
2015.0

>  <Active>  (595) 
0.0

>  <bits>  (595) 
<rdkit.DataStructs.cDataStructs.ExplicitBitVect object at 0x000002422F16F300>

>  <Group>  (595) 
G2

$$$$

     RDKit          2D

 28 31  0  0  0  0  0  0  0  0999 V2000
    4.5000  -10.3923    0.0000 N   0  0  0  0  0  0  0  0  0  0  0  0
    3.7500   -9.0933    0.0000 S   0  0  0  0  0  0  0  0  0  0  0  0
    2.4510   -9.8433    0.0000 O   0  0  0  0  0  0  0  0  0  0  0  0
    5.0490   -8.3433    0.0000 O   0  0  0  0  0  0  0  0  0  0  0  0
    3.0000   -7.7942    0.0000 C   0  0  0  0  0  0  0  0  0  0  0  0
    1.5000   -7.7942    0.0000 C   0  0  0  0  0  0  0  0  0  0  0  0
    0.7500   -6.4952    0.0000 C   0  0  0  0  0  0  0  0  0  0  0  0
    1.5000   -5.1962    0.0000 C   0  0  0  0  0  0  0  0  0  0  0  0
    0.7500   -3.8971    0.0000 C   0  0  0  0  0  0  0  0  0  0  0  0
    1.5000   -2.5981    0.0000 C   0  0  0  0  0  0  0  0  0  0  0  0
    0.7500   -1.2990    0.0000 C   0  0  0  0  0  0  0  0  0  0  0  0
    1.5000    0.0000    0.0000 C   0  0  0  0  0  0  0  0  0  0  0  0
    0.7500    1.2990    0.0000 C   0  0  0  0  0  0  0  0  0  0  0  0
   -0.7500    1.2990    0.0000 N   0  0  0  0  0  0  0  0  0  0  0  0
   -1.5000    0.0000    0.0000 C   0  0  0  0  0  0  0  0  0  0  0  0
   -0.7500   -1.2990    0.0000 C   0  0  0  0  0  0  0  0  0  0  0  0
   -1.5000   -2.5981    0.0000 C   0  0  0  0  0  0  0  0  0  0  0  0
   -0.7500   -3.8971    0.0000 C   0  0  0  0  0  0  0  0  0  0  0  0
   -1.5000   -5.1962    0.0000 O   0  0  0  0  0  0  0  0  0  0  0  0
   -3.0000   -5.1962    0.0000 C   0  0  0  0  0  0  0  0  0  0  0  0
   -3.7500   -6.4952    0.0000 C   0  0  0  0  0  0  0  0  0  0  0  0
   -5.2500   -6.4952    0.0000 C   0  0  0  0  0  0  0  0  0  0  0  0
   -6.0000   -7.7942    0.0000 C   0  0  0  0  0  0  0  0  0  0  0  0
   -5.2500   -9.0933    0.0000 C   0  0  0  0  0  0  0  0  0  0  0  0
   -3.7500   -9.0933    0.0000 C   0  0  0  0  0  0  0  0  0  0  0  0
   -3.0000   -7.7942    0.0000 C   0  0  0  0  0  0  0  0  0  0  0  0
    3.0000   -5.1962    0.0000 C   0  0  0  0  0  0  0  0  0  0  0  0
    3.7500   -6.4952    0.0000 C   0  0  0  0  0  0  0  0  0  0  0  0
  1  2  1  0
  2  3  2  0
  2  4  2  0
  2  5  1  0
  5  6  2  0
  6  7  1  0
  7  8  2  0
  8  9  1  0
  9 10  2  0
 10 11  1  0
 11 12  2  0
 12 13  1  0
 13 14  2  0
 14 15  1  0
 15 16  2  0
 16 17  1  0
 17 18  2  0
 18 19  1  0
 19 20  1  0
 20 21  1  0
 21 22  2  0
 22 23  1  0
 23 24  2  0
 24 25  1  0
 25 26  2  0
  8 27  1  0
 27 28  2  0
 28  5  1  0
 18  9  1  0
 26 21  1  0
 16 11  1  0
M  END
>  <Compound_ID>  (596) 
CHEMBL483748

>  <Molecule Name>  (596) 
GSK-953913A

>  <Molecular Weight>  (596) 
390.46

>  <AlogP>  (596) 
4.13

>  <Smiles>  (596) 
NS(=O)(=O)c1ccc(-c2cc3ccncc3cc2OCc2ccccc2)cc1

>  <Standard Type>  (596) 
Inhibition

>  <Standard Relation>  (596) 
'='

>  <Standard Units>  (596) 
%

>  <Standard Value>  (596) 
4.77

>  <Assay ChEMBL ID>  (596) 
CHEMBL1962240

>  <Assay Description>  (596) 
GSK_PKIS: ALK mean inhibition at 0.1 uM [Nanosyn]

>  <BAO Format ID>  (596) 
BAO_0000357

>  <BAO Label>  (596) 
single protein format

>  <Assay Organism>  (596) 
None

>  <Target ChEMBL ID>  (596) 
CHEMBL4247

>  <Target Name>  (596) 
ALK tyrosine kinase receptor

>  <Target Organism>  (596) 
Homo sapiens

>  <Target Type>  (596) 
SINGLE PROTEIN

>  <Document ChEMBL ID>  (596) 
CHEMBL1961873

>  <Source Description>  (596) 
GSK Published Kinase Inhibitor Set

>  <Document Journal>  (596) 
nan

>  <Document Year>  (596) 
nan

>  <Active>  (596) 
0.0

>  <bits>  (596) 
<rdkit.DataStructs.cDataStructs.ExplicitBitVect object at 0x000002422F16F5A0>

>  <Group>  (596) 
G2

$$$$

     RDKit          2D

 31 35  0  0  0  0  0  0  0  0999 V2000
   12.7500   -1.2990    0.0000 F   0  0  0  0  0  0  0  0  0  0  0  0
   12.0000   -2.5981    0.0000 C   0  0  0  0  0  0  0  0  0  0  0  0
   12.7500   -3.8971    0.0000 C   0  0  0  0  0  0  0  0  0  0  0  0
   12.0000   -5.1962    0.0000 C   0  0  0  0  0  0  0  0  0  0  0  0
   10.5000   -5.1962    0.0000 C   0  0  0  0  0  0  0  0  0  0  0  0
    9.7500   -3.8971    0.0000 C   0  0  0  0  0  0  0  0  0  0  0  0
    8.2500   -3.8971    0.0000 C   0  0  0  0  0  0  0  0  0  0  0  0
    7.5000   -2.5981    0.0000 O   0  0  0  0  0  0  0  0  0  0  0  0
    6.0000   -2.5981    0.0000 C   0  0  0  0  0  0  0  0  0  0  0  0
    5.2500   -1.2990    0.0000 C   0  0  0  0  0  0  0  0  0  0  0  0
    3.7500   -1.2990    0.0000 C   0  0  0  0  0  0  0  0  0  0  0  0
    3.0000   -2.5981    0.0000 C   0  0  0  0  0  0  0  0  0  0  0  0
    1.5000   -2.5981    0.0000 N   0  0  0  0  0  0  0  0  0  0  0  0
    0.7500   -1.2990    0.0000 C   0  0  0  0  0  0  0  0  0  0  0  0
    1.5000    0.0000    0.0000 N   0  0  0  0  0  0  0  0  0  0  0  0
    0.7500    1.2990    0.0000 C   0  0  0  0  0  0  0  0  0  0  0  0
   -0.7500    1.2990    0.0000 N   0  0  0  0  0  0  0  0  0  0  0  0
   -1.5000    0.0000    0.0000 C   0  0  0  0  0  0  0  0  0  0  0  0
   -2.9672   -0.3119    0.0000 C   0  0  0  0  0  0  0  0  0  0  0  0
   -3.1240   -1.8037    0.0000 C   0  0  0  0  0  0  0  0  0  0  0  0
   -4.4231   -2.5537    0.0000 C   0  0  0  0  0  0  0  0  0  0  0  0
   -4.5798   -4.0454    0.0000 C   0  0  0  0  0  0  0  0  0  0  0  0
   -6.0471   -4.3573    0.0000 C   0  0  0  0  0  0  0  0  0  0  0  0
   -6.7971   -3.0583    0.0000 C   0  0  0  0  0  0  0  0  0  0  0  0
   -5.7934   -1.9435    0.0000 N   0  0  0  0  0  0  0  0  0  0  0  0
   -1.7537   -2.4138    0.0000 S   0  0  0  0  0  0  0  0  0  0  0  0
   -0.7500   -1.2990    0.0000 C   0  0  0  0  0  0  0  0  0  0  0  0
    3.7500   -3.8971    0.0000 C   0  0  0  0  0  0  0  0  0  0  0  0
    5.2500   -3.8971    0.0000 C   0  0  0  0  0  0  0  0  0  0  0  0
    6.0000   -5.1962    0.0000 Cl  0  0  0  0  0  0  0  0  0  0  0  0
   10.5000   -2.5981    0.0000 C   0  0  0  0  0  0  0  0  0  0  0  0
  1  2  1  0
  2  3  2  0
  3  4  1  0
  4  5  2  0
  5  6  1  0
  6  7  1  0
  7  8  1  0
  8  9  1  0
  9 10  2  0
 10 11  1  0
 11 12  2  0
 12 13  1  0
 13 14  1  0
 14 15  2  0
 15 16  1  0
 16 17  2  0
 17 18  1  0
 18 19  1  0
 19 20  2  0
 20 21  1  0
 21 22  2  0
 22 23  1  0
 23 24  2  0
 24 25  1  0
 20 26  1  0
 26 27  1  0
 12 28  1  0
 28 29  2  0
 29 30  1  0
  6 31  2  0
 31  2  1  0
 29  9  1  0
 27 14  1  0
 27 18  2  0
 25 21  1  0
M  END
>  <Compound_ID>  (597) 
CHEMBL1909415

>  <Molecule Name>  (597) 
GW693881A

>  <Molecular Weight>  (597) 
487.39

>  <AlogP>  (597) 
6.8

>  <Smiles>  (597) 
Fc1cccc(COc2ccc(Nc3ncnc4cc(-c5ccc[nH]5)sc34)cc2Cl)c1

>  <Standard Type>  (597) 
Inhibition

>  <Standard Relation>  (597) 
'='

>  <Standard Units>  (597) 
%

>  <Standard Value>  (597) 
-2.31

>  <Assay ChEMBL ID>  (597) 
CHEMBL1962240

>  <Assay Description>  (597) 
GSK_PKIS: ALK mean inhibition at 0.1 uM [Nanosyn]

>  <BAO Format ID>  (597) 
BAO_0000357

>  <BAO Label>  (597) 
single protein format

>  <Assay Organism>  (597) 
None

>  <Target ChEMBL ID>  (597) 
CHEMBL4247

>  <Target Name>  (597) 
ALK tyrosine kinase receptor

>  <Target Organism>  (597) 
Homo sapiens

>  <Target Type>  (597) 
SINGLE PROTEIN

>  <Document ChEMBL ID>  (597) 
CHEMBL1961873

>  <Source Description>  (597) 
GSK Published Kinase Inhibitor Set

>  <Document Journal>  (597) 
nan

>  <Document Year>  (597) 
nan

>  <Active>  (597) 
0.0

>  <bits>  (597) 
<rdkit.DataStructs.cDataStructs.ExplicitBitVect object at 0x000002422F16F610>

>  <Group>  (597) 
G2

$$$$

     RDKit          2D

 21 24  0  0  0  0  0  0  0  0999 V2000
   -4.6740   -7.4303    0.0000 C   0  0  0  0  0  0  0  0  0  0  0  0
   -3.3037   -6.8202    0.0000 N   0  0  0  0  0  0  0  0  0  0  0  0
   -2.9918   -5.3529    0.0000 N   0  0  0  0  0  0  0  0  0  0  0  0
   -1.5000   -5.1962    0.0000 C   0  0  0  0  0  0  0  0  0  0  0  0
   -0.7500   -3.8971    0.0000 C   0  0  0  0  0  0  0  0  0  0  0  0
    0.7500   -3.8971    0.0000 C   0  0  0  0  0  0  0  0  0  0  0  0
    1.5000   -2.5981    0.0000 C   0  0  0  0  0  0  0  0  0  0  0  0
    0.7500   -1.2990    0.0000 C   0  0  0  0  0  0  0  0  0  0  0  0
    1.5000    0.0000    0.0000 C   0  0  0  0  0  0  0  0  0  0  0  0
    0.7500    1.2990    0.0000 C   0  0  0  0  0  0  0  0  0  0  0  0
   -0.7500    1.2990    0.0000 C   0  0  0  0  0  0  0  0  0  0  0  0
   -1.5000    0.0000    0.0000 C   0  0  0  0  0  0  0  0  0  0  0  0
   -0.7500   -1.2990    0.0000 C   0  0  0  0  0  0  0  0  0  0  0  0
   -1.5000   -2.5981    0.0000 C   0  0  0  0  0  0  0  0  0  0  0  0
   -0.8899   -6.5665    0.0000 C   0  0  0  0  0  0  0  0  0  0  0  0
    0.5367   -7.0300    0.0000 C   0  0  0  0  0  0  0  0  0  0  0  0
    1.6514   -6.0263    0.0000 N   0  0  0  0  0  0  0  0  0  0  0  0
    0.8486   -8.4972    0.0000 N   0  0  0  0  0  0  0  0  0  0  0  0
   -0.2662   -9.5009    0.0000 C   0  0  0  0  0  0  0  0  0  0  0  0
   -1.6927   -9.0374    0.0000 N   0  0  0  0  0  0  0  0  0  0  0  0
   -2.0046   -7.5702    0.0000 C   0  0  0  0  0  0  0  0  0  0  0  0
  1  2  1  0
  2  3  1  0
  3  4  2  0
  4  5  1  0
  5  6  2  0
  6  7  1  0
  7  8  2  0
  8  9  1  0
  9 10  2  0
 10 11  1  0
 11 12  2  0
 12 13  1  0
 13 14  2  0
  4 15  1  0
 15 16  2  0
 16 17  1  0
 16 18  1  0
 18 19  2  0
 19 20  1  0
 20 21  2  0
 21  2  1  0
 14  5  1  0
 21 15  1  0
 13  8  1  0
M  END
>  <Compound_ID>  (598) 
CHEMBL1234815

>  <Molecule Name>  (598) 
nan

>  <Molecular Weight>  (598) 
275.31

>  <AlogP>  (598) 
2.77

>  <Smiles>  (598) 
Cn1nc(-c2ccc3ccccc3c2)c2c(N)ncnc21

>  <Standard Type>  (598) 
Inhibition

>  <Standard Relation>  (598) 
'='

>  <Standard Units>  (598) 
%

>  <Standard Value>  (598) 
11.0

>  <Assay ChEMBL ID>  (598) 
CHEMBL1243991

>  <Assay Description>  (598) 
Inhibition of ALK at 1 uM after 60 mins by FRET assay in presence of 10 uM ATP

>  <BAO Format ID>  (598) 
BAO_0000357

>  <BAO Label>  (598) 
single protein format

>  <Assay Organism>  (598) 
None

>  <Target ChEMBL ID>  (598) 
CHEMBL4247

>  <Target Name>  (598) 
ALK tyrosine kinase receptor

>  <Target Organism>  (598) 
Homo sapiens

>  <Target Type>  (598) 
SINGLE PROTEIN

>  <Document ChEMBL ID>  (598) 
CHEMBL1240340

>  <Source Description>  (598) 
Scientific Literature

>  <Document Journal>  (598) 
Nat Chem Biol

>  <Document Year>  (598) 
2008.0

>  <Active>  (598) 
0.0

>  <bits>  (598) 
<rdkit.DataStructs.cDataStructs.ExplicitBitVect object at 0x000002422F16DA10>

>  <Group>  (598) 
G2

$$$$

     RDKit          2D

 32 36  0  0  0  0  0  0  0  0999 V2000
    1.5000    0.0000    0.0000 C   0  0  0  0  0  0  0  0  0  0  0  0
    0.7500   -1.2990    0.0000 C   0  0  0  0  0  0  0  0  0  0  0  0
   -0.7500   -1.2990    0.0000 C   0  0  0  0  0  0  0  0  0  0  0  0
   -1.5000    0.0000    0.0000 C   0  0  0  0  0  0  0  0  0  0  0  0
   -3.0000    0.0000    0.0000 C   0  0  0  0  0  0  0  0  0  0  0  0
   -3.8817   -1.2135    0.0000 N   0  0  0  0  0  0  0  0  0  0  0  0
   -5.3083   -0.7500    0.0000 N   0  0  0  0  0  0  0  0  0  0  0  0
   -5.3083    0.7500    0.0000 C   0  0  0  0  0  0  0  0  0  0  0  0
   -3.8817    1.2135    0.0000 C   0  0  0  0  0  0  0  0  0  0  0  0
   -3.4182    2.6401    0.0000 C   0  0  0  0  0  0  0  0  0  0  0  0
   -1.9509    2.9520    0.0000 C   0  0  0  0  0  0  0  0  0  0  0  0
   -1.4874    4.3786    0.0000 C   0  0  0  0  0  0  0  0  0  0  0  0
   -2.4911    5.4933    0.0000 N   0  0  0  0  0  0  0  0  0  0  0  0
   -3.9583    5.1814    0.0000 C   0  0  0  0  0  0  0  0  0  0  0  0
   -4.9620    6.2961    0.0000 C   0  0  0  0  0  0  0  0  0  0  0  0
   -4.4985    7.7227    0.0000 C   0  0  0  0  0  0  0  0  0  0  0  0
   -5.5022    8.8374    0.0000 C   0  0  0  0  0  0  0  0  0  0  0  0
   -6.9694    8.5256    0.0000 C   0  0  0  0  0  0  0  0  0  0  0  0
   -7.9731    9.6403    0.0000 O   0  0  0  0  0  0  0  0  0  0  0  0
   -7.5096   11.0669    0.0000 C   0  0  0  0  0  0  0  0  0  0  0  0
   -8.5133   12.1816    0.0000 C   0  0  0  0  0  0  0  0  0  0  0  0
   -8.0498   13.6082    0.0000 N   0  0  0  0  0  0  0  0  0  0  0  0
   -6.5825   13.9200    0.0000 C   0  0  0  0  0  0  0  0  0  0  0  0
   -6.1190   15.3466    0.0000 C   0  0  0  0  0  0  0  0  0  0  0  0
   -7.1227   16.4613    0.0000 O   0  0  0  0  0  0  0  0  0  0  0  0
   -8.5899   16.1495    0.0000 C   0  0  0  0  0  0  0  0  0  0  0  0
   -9.0534   14.7229    0.0000 C   0  0  0  0  0  0  0  0  0  0  0  0
   -7.4329    7.0990    0.0000 C   0  0  0  0  0  0  0  0  0  0  0  0
   -6.4292    5.9843    0.0000 C   0  0  0  0  0  0  0  0  0  0  0  0
   -4.4218    3.7548    0.0000 C   0  0  0  0  0  0  0  0  0  0  0  0
   -0.7500    1.2990    0.0000 N   0  0  0  0  0  0  0  0  0  0  0  0
    0.7500    1.2990    0.0000 C   0  0  0  0  0  0  0  0  0  0  0  0
  1  2  2  0
  2  3  1  0
  3  4  2  0
  4  5  1  0
  5  6  2  0
  6  7  1  0
  7  8  1  0
  8  9  2  0
  9 10  1  0
 10 11  2  0
 11 12  1  0
 12 13  2  0
 13 14  1  0
 14 15  1  0
 15 16  2  0
 16 17  1  0
 17 18  2  0
 18 19  1  0
 19 20  1  0
 20 21  1  0
 21 22  1  0
 22 23  1  0
 23 24  1  0
 24 25  1  0
 25 26  1  0
 26 27  1  0
 18 28  1  0
 28 29  2  0
 14 30  2  0
  4 31  1  0
 31 32  2  0
 32  1  1  0
  9  5  1  0
 30 10  1  0
 29 15  1  0
 27 22  1  0
M  END
>  <Compound_ID>  (599) 
CHEMBL205158

>  <Molecule Name>  (599) 
GW695874X

>  <Molecular Weight>  (599) 
427.51

>  <AlogP>  (599) 
3.91

>  <Smiles>  (599) 
c1ccc(-c2n[nH]cc2-c2ccnc(-c3ccc(OCCN4CCOCC4)cc3)c2)nc1

>  <Standard Type>  (599) 
Inhibition

>  <Standard Relation>  (599) 
'='

>  <Standard Units>  (599) 
%

>  <Standard Value>  (599) 
3.94

>  <Assay ChEMBL ID>  (599) 
CHEMBL1962241

>  <Assay Description>  (599) 
GSK_PKIS: ALK mean inhibition at 1 uM [Nanosyn]

>  <BAO Format ID>  (599) 
BAO_0000357

>  <BAO Label>  (599) 
single protein format

>  <Assay Organism>  (599) 
None

>  <Target ChEMBL ID>  (599) 
CHEMBL4247

>  <Target Name>  (599) 
ALK tyrosine kinase receptor

>  <Target Organism>  (599) 
Homo sapiens

>  <Target Type>  (599) 
SINGLE PROTEIN

>  <Document ChEMBL ID>  (599) 
CHEMBL1961873

>  <Source Description>  (599) 
GSK Published Kinase Inhibitor Set

>  <Document Journal>  (599) 
nan

>  <Document Year>  (599) 
nan

>  <Active>  (599) 
0.0

>  <bits>  (599) 
<rdkit.DataStructs.cDataStructs.ExplicitBitVect object at 0x000002422F16FCA0>

>  <Group>  (599) 
G2

$$$$

     RDKit          2D

 23 25  0  0  0  0  0  0  0  0999 V2000
    3.0000    0.0000    0.0000 C   0  0  0  0  0  0  0  0  0  0  0  0
    1.5000    0.0000    0.0000 C   0  0  0  0  0  0  0  0  0  0  0  0
    0.7500   -1.2990    0.0000 C   0  0  0  0  0  0  0  0  0  0  0  0
   -0.7500   -1.2990    0.0000 C   0  0  0  0  0  0  0  0  0  0  0  0
   -1.5000    0.0000    0.0000 C   0  0  0  0  0  0  0  0  0  0  0  0
   -0.7500    1.2990    0.0000 C   0  0  0  0  0  0  0  0  0  0  0  0
    0.7500    1.2990    0.0000 C   0  0  0  0  0  0  0  0  0  0  0  0
   -1.7537    2.4138    0.0000 C   0  0  0  0  0  0  0  0  0  0  0  0
   -1.4418    3.8810    0.0000 N   0  0  0  0  0  0  0  0  0  0  0  0
   -2.5565    4.8847    0.0000 N   0  0  0  0  0  0  0  0  0  0  0  0
   -2.2447    6.3519    0.0000 C   0  0  0  0  0  0  0  0  0  0  0  0
   -0.8181    6.8154    0.0000 C   0  0  0  0  0  0  0  0  0  0  0  0
   -0.5062    8.2826    0.0000 C   0  0  0  0  0  0  0  0  0  0  0  0
   -1.6209    9.2863    0.0000 C   0  0  0  0  0  0  0  0  0  0  0  0
   -1.3091   10.7536    0.0000 S   0  0  0  0  0  0  0  0  0  0  0  0
   -0.9972   12.2208    0.0000 N   0  0  0  0  0  0  0  0  0  0  0  0
    0.1581   10.4417    0.0000 O   0  0  0  0  0  0  0  0  0  0  0  0
   -2.7763   11.0654    0.0000 O   0  0  0  0  0  0  0  0  0  0  0  0
   -3.0475    8.8228    0.0000 C   0  0  0  0  0  0  0  0  0  0  0  0
   -3.3594    7.3556    0.0000 C   0  0  0  0  0  0  0  0  0  0  0  0
   -3.1240    1.8037    0.0000 C   0  0  0  0  0  0  0  0  0  0  0  0
   -4.4231    2.5537    0.0000 O   0  0  0  0  0  0  0  0  0  0  0  0
   -2.9672    0.3119    0.0000 N   0  0  0  0  0  0  0  0  0  0  0  0
  1  2  1  0
  2  3  2  0
  3  4  1  0
  4  5  2  0
  5  6  1  0
  6  7  2  0
  6  8  1  0
  8  9  2  0
  9 10  1  0
 10 11  1  0
 11 12  2  0
 12 13  1  0
 13 14  2  0
 14 15  1  0
 15 16  1  0
 15 17  2  0
 15 18  2  0
 14 19  1  0
 19 20  2  0
  8 21  1  0
 21 22  2  0
 21 23  1  0
  7  2  1  0
 20 11  1  0
 23  5  1  0
M  END
>  <Compound_ID>  (600) 
CHEMBL271843

>  <Molecule Name>  (600) 
GW275944X

>  <Molecular Weight>  (600) 
330.37

>  <AlogP>  (600) 
1.41

>  <Smiles>  (600) 
Cc1ccc2c(c1)/C(=N/Nc1ccc(S(N)(=O)=O)cc1)C(=O)N2

>  <Standard Type>  (600) 
Inhibition

>  <Standard Relation>  (600) 
'='

>  <Standard Units>  (600) 
%

>  <Standard Value>  (600) 
0.89

>  <Assay ChEMBL ID>  (600) 
CHEMBL1962240

>  <Assay Description>  (600) 
GSK_PKIS: ALK mean inhibition at 0.1 uM [Nanosyn]

>  <BAO Format ID>  (600) 
BAO_0000357

>  <BAO Label>  (600) 
single protein format

>  <Assay Organism>  (600) 
None

>  <Target ChEMBL ID>  (600) 
CHEMBL4247

>  <Target Name>  (600) 
ALK tyrosine kinase receptor

>  <Target Organism>  (600) 
Homo sapiens

>  <Target Type>  (600) 
SINGLE PROTEIN

>  <Document ChEMBL ID>  (600) 
CHEMBL1961873

>  <Source Description>  (600) 
GSK Published Kinase Inhibitor Set

>  <Document Journal>  (600) 
nan

>  <Document Year>  (600) 
nan

>  <Active>  (600) 
0.0

>  <bits>  (600) 
<rdkit.DataStructs.cDataStructs.ExplicitBitVect object at 0x000002422F16F680>

>  <Group>  (600) 
G2

$$$$

     RDKit          2D

 31 35  0  0  0  0  0  0  0  0999 V2000
    1.5000    0.0000    0.0000 C   0  0  0  0  0  0  0  0  0  0  0  0
    0.7500   -1.2990    0.0000 C   0  0  0  0  0  0  0  0  0  0  0  0
   -0.7500   -1.2990    0.0000 C   0  0  0  0  0  0  0  0  0  0  0  0
   -1.5000    0.0000    0.0000 C   0  0  0  0  0  0  0  0  0  0  0  0
   -3.0000    0.0000    0.0000 C   0  0  0  0  0  0  0  0  0  0  0  0
   -3.8817   -1.2135    0.0000 N   0  0  0  0  0  0  0  0  0  0  0  0
   -5.3083   -0.7500    0.0000 N   0  0  0  0  0  0  0  0  0  0  0  0
   -5.3083    0.7500    0.0000 C   0  0  0  0  0  0  0  0  0  0  0  0
   -3.8817    1.2135    0.0000 C   0  0  0  0  0  0  0  0  0  0  0  0
   -3.4182    2.6401    0.0000 C   0  0  0  0  0  0  0  0  0  0  0  0
   -1.9509    2.9520    0.0000 C   0  0  0  0  0  0  0  0  0  0  0  0
   -1.4874    4.3786    0.0000 C   0  0  0  0  0  0  0  0  0  0  0  0
   -2.4911    5.4933    0.0000 N   0  0  0  0  0  0  0  0  0  0  0  0
   -3.9583    5.1814    0.0000 C   0  0  0  0  0  0  0  0  0  0  0  0
   -4.9620    6.2961    0.0000 C   0  0  0  0  0  0  0  0  0  0  0  0
   -4.4985    7.7227    0.0000 C   0  0  0  0  0  0  0  0  0  0  0  0
   -5.5022    8.8374    0.0000 C   0  0  0  0  0  0  0  0  0  0  0  0
   -6.9694    8.5256    0.0000 C   0  0  0  0  0  0  0  0  0  0  0  0
   -7.9731    9.6403    0.0000 O   0  0  0  0  0  0  0  0  0  0  0  0
   -7.5096   11.0669    0.0000 C   0  0  0  0  0  0  0  0  0  0  0  0
   -8.5133   12.1816    0.0000 C   0  0  0  0  0  0  0  0  0  0  0  0
   -8.0498   13.6082    0.0000 N   0  0  0  0  0  0  0  0  0  0  0  0
   -8.9314   14.8217    0.0000 C   0  0  0  0  0  0  0  0  0  0  0  0
   -8.0498   16.0352    0.0000 C   0  0  0  0  0  0  0  0  0  0  0  0
   -6.6232   15.5717    0.0000 N   0  0  0  0  0  0  0  0  0  0  0  0
   -6.6232   14.0717    0.0000 C   0  0  0  0  0  0  0  0  0  0  0  0
   -7.4329    7.0990    0.0000 C   0  0  0  0  0  0  0  0  0  0  0  0
   -6.4292    5.9843    0.0000 C   0  0  0  0  0  0  0  0  0  0  0  0
   -4.4218    3.7548    0.0000 C   0  0  0  0  0  0  0  0  0  0  0  0
   -0.7500    1.2990    0.0000 N   0  0  0  0  0  0  0  0  0  0  0  0
    0.7500    1.2990    0.0000 C   0  0  0  0  0  0  0  0  0  0  0  0
  1  2  2  0
  2  3  1  0
  3  4  2  0
  4  5  1  0
  5  6  2  0
  6  7  1  0
  7  8  1  0
  8  9  2  0
  9 10  1  0
 10 11  2  0
 11 12  1  0
 12 13  2  0
 13 14  1  0
 14 15  1  0
 15 16  2  0
 16 17  1  0
 17 18  2  0
 18 19  1  0
 19 20  1  0
 20 21  1  0
 21 22  1  0
 22 23  1  0
 23 24  2  0
 24 25  1  0
 25 26  2  0
 18 27  1  0
 27 28  2  0
 14 29  2  0
  4 30  1  0
 30 31  2  0
 31  1  1  0
  9  5  1  0
 29 10  1  0
 28 15  1  0
 26 22  1  0
M  END
>  <Compound_ID>  (601) 
CHEMBL208437

>  <Molecule Name>  (601) 
GW711782X

>  <Molecular Weight>  (601) 
408.47

>  <AlogP>  (601) 
4.48

>  <Smiles>  (601) 
c1ccc(-c2n[nH]cc2-c2ccnc(-c3ccc(OCCn4ccnc4)cc3)c2)nc1

>  <Standard Type>  (601) 
Inhibition

>  <Standard Relation>  (601) 
'='

>  <Standard Units>  (601) 
%

>  <Standard Value>  (601) 
-0.73

>  <Assay ChEMBL ID>  (601) 
CHEMBL1962240

>  <Assay Description>  (601) 
GSK_PKIS: ALK mean inhibition at 0.1 uM [Nanosyn]

>  <BAO Format ID>  (601) 
BAO_0000357

>  <BAO Label>  (601) 
single protein format

>  <Assay Organism>  (601) 
None

>  <Target ChEMBL ID>  (601) 
CHEMBL4247

>  <Target Name>  (601) 
ALK tyrosine kinase receptor

>  <Target Organism>  (601) 
Homo sapiens

>  <Target Type>  (601) 
SINGLE PROTEIN

>  <Document ChEMBL ID>  (601) 
CHEMBL1961873

>  <Source Description>  (601) 
GSK Published Kinase Inhibitor Set

>  <Document Journal>  (601) 
nan

>  <Document Year>  (601) 
nan

>  <Active>  (601) 
0.0

>  <bits>  (601) 
<rdkit.DataStructs.cDataStructs.ExplicitBitVect object at 0x000002422F16EF10>

>  <Group>  (601) 
G2

$$$$

     RDKit          2D

 25 28  0  0  0  0  0  0  0  0999 V2000
    3.7500   -1.2990    0.0000 C   0  0  0  0  0  0  0  0  0  0  0  0
    3.0000    0.0000    0.0000 O   0  0  0  0  0  0  0  0  0  0  0  0
    1.5000    0.0000    0.0000 C   0  0  0  0  0  0  0  0  0  0  0  0
    0.7500   -1.2990    0.0000 C   0  0  0  0  0  0  0  0  0  0  0  0
   -0.7500   -1.2990    0.0000 C   0  0  0  0  0  0  0  0  0  0  0  0
   -1.5000    0.0000    0.0000 C   0  0  0  0  0  0  0  0  0  0  0  0
   -3.0000    0.0000    0.0000 C   0  0  0  0  0  0  0  0  0  0  0  0
   -3.7500    1.2990    0.0000 C   0  0  0  0  0  0  0  0  0  0  0  0
   -5.2500    1.2990    0.0000 C   0  0  0  0  0  0  0  0  0  0  0  0
   -6.0000    2.5981    0.0000 C   0  0  0  0  0  0  0  0  0  0  0  0
   -7.4918    2.7549    0.0000 C   0  0  0  0  0  0  0  0  0  0  0  0
   -7.8037    4.2221    0.0000 N   0  0  0  0  0  0  0  0  0  0  0  0
   -6.5046    4.9721    0.0000 N   0  0  0  0  0  0  0  0  0  0  0  0
   -5.3899    3.9684    0.0000 C   0  0  0  0  0  0  0  0  0  0  0  0
   -3.9227    4.2803    0.0000 C   0  0  0  0  0  0  0  0  0  0  0  0
   -2.9190    3.1655    0.0000 C   0  0  0  0  0  0  0  0  0  0  0  0
   -1.4518    3.4774    0.0000 C   0  0  0  0  0  0  0  0  0  0  0  0
   -0.9882    4.9040    0.0000 C   0  0  0  0  0  0  0  0  0  0  0  0
   -1.9919    6.0187    0.0000 C   0  0  0  0  0  0  0  0  0  0  0  0
   -3.4591    5.7068    0.0000 N   0  0  0  0  0  0  0  0  0  0  0  0
   -6.0000    0.0000    0.0000 C   0  0  0  0  0  0  0  0  0  0  0  0
   -5.2500   -1.2990    0.0000 C   0  0  0  0  0  0  0  0  0  0  0  0
   -3.7500   -1.2990    0.0000 N   0  0  0  0  0  0  0  0  0  0  0  0
   -0.7500    1.2990    0.0000 C   0  0  0  0  0  0  0  0  0  0  0  0
    0.7500    1.2990    0.0000 C   0  0  0  0  0  0  0  0  0  0  0  0
  1  2  1  0
  2  3  1  0
  3  4  2  0
  4  5  1  0
  5  6  2  0
  6  7  1  0
  7  8  2  0
  8  9  1  0
  9 10  1  0
 10 11  2  0
 11 12  1  0
 12 13  1  0
 13 14  2  0
 14 15  1  0
 15 16  2  0
 16 17  1  0
 17 18  2  0
 18 19  1  0
 19 20  2  0
  9 21  2  0
 21 22  1  0
 22 23  2  0
  6 24  1  0
 24 25  2  0
 25  3  1  0
 23  7  1  0
 14 10  1  0
 20 15  1  0
M  END
>  <Compound_ID>  (602) 
CHEMBL202891

>  <Molecule Name>  (602) 
GW679410X

>  <Molecular Weight>  (602) 
328.38

>  <AlogP>  (602) 
4.21

>  <Smiles>  (602) 
COc1ccc(-c2cc(-c3c[nH]nc3-c3ccccn3)ccn2)cc1

>  <Standard Type>  (602) 
Inhibition

>  <Standard Relation>  (602) 
'='

>  <Standard Units>  (602) 
%

>  <Standard Value>  (602) 
3.73

>  <Assay ChEMBL ID>  (602) 
CHEMBL1962240

>  <Assay Description>  (602) 
GSK_PKIS: ALK mean inhibition at 0.1 uM [Nanosyn]

>  <BAO Format ID>  (602) 
BAO_0000357

>  <BAO Label>  (602) 
single protein format

>  <Assay Organism>  (602) 
None

>  <Target ChEMBL ID>  (602) 
CHEMBL4247

>  <Target Name>  (602) 
ALK tyrosine kinase receptor

>  <Target Organism>  (602) 
Homo sapiens

>  <Target Type>  (602) 
SINGLE PROTEIN

>  <Document ChEMBL ID>  (602) 
CHEMBL1961873

>  <Source Description>  (602) 
GSK Published Kinase Inhibitor Set

>  <Document Journal>  (602) 
nan

>  <Document Year>  (602) 
nan

>  <Active>  (602) 
0.0

>  <bits>  (602) 
<rdkit.DataStructs.cDataStructs.ExplicitBitVect object at 0x000002422F16E9D0>

>  <Group>  (602) 
G2

$$$$

     RDKit          2D

 25 27  0  0  0  0  0  0  0  0999 V2000
    3.0000    0.0000    0.0000 C   0  0  0  0  0  0  0  0  0  0  0  0
    1.5000    0.0000    0.0000 C   0  0  0  0  0  0  0  0  0  0  0  0
    0.7500   -1.2990    0.0000 C   0  0  0  0  0  0  0  0  0  0  0  0
   -0.7500   -1.2990    0.0000 C   0  0  0  0  0  0  0  0  0  0  0  0
   -1.5000    0.0000    0.0000 C   0  0  0  0  0  0  0  0  0  0  0  0
   -3.0000    0.0000    0.0000 N   0  0  0  0  0  0  0  0  0  0  0  0
   -3.7500    1.2990    0.0000 C   0  0  0  0  0  0  0  0  0  0  0  0
   -3.0000    2.5981    0.0000 C   0  0  0  0  0  0  0  0  0  0  0  0
   -3.7500    3.8971    0.0000 C   0  0  0  0  0  0  0  0  0  0  0  0
   -5.2500    3.8971    0.0000 N   0  0  0  0  0  0  0  0  0  0  0  0
   -6.0000    2.5981    0.0000 C   0  0  0  0  0  0  0  0  0  0  0  0
   -7.5000    2.5981    0.0000 N   0  0  0  0  0  0  0  0  0  0  0  0
   -8.2500    3.8971    0.0000 C   0  0  0  0  0  0  0  0  0  0  0  0
   -7.5000    5.1962    0.0000 C   0  0  0  0  0  0  0  0  0  0  0  0
   -8.2500    6.4952    0.0000 C   0  0  0  0  0  0  0  0  0  0  0  0
   -9.7500    6.4952    0.0000 C   0  0  0  0  0  0  0  0  0  0  0  0
  -10.5000    5.1962    0.0000 C   0  0  0  0  0  0  0  0  0  0  0  0
  -12.0000    5.1962    0.0000 C   0  0  0  0  0  0  0  0  0  0  0  0
  -12.7500    6.4952    0.0000 N   0  0  0  0  0  0  0  0  0  0  0  0
  -12.7500    3.8971    0.0000 O   0  0  0  0  0  0  0  0  0  0  0  0
   -9.7500    3.8971    0.0000 C   0  0  0  0  0  0  0  0  0  0  0  0
   -5.2500    1.2990    0.0000 N   0  0  0  0  0  0  0  0  0  0  0  0
   -0.7500    1.2990    0.0000 C   0  0  0  0  0  0  0  0  0  0  0  0
    0.7500    1.2990    0.0000 C   0  0  0  0  0  0  0  0  0  0  0  0
    1.5000    2.5981    0.0000 O   0  0  0  0  0  0  0  0  0  0  0  0
  1  2  1  0
  2  3  2  0
  3  4  1  0
  4  5  2  0
  5  6  1  0
  6  7  1  0
  7  8  2  0
  8  9  1  0
  9 10  2  0
 10 11  1  0
 11 12  1  0
 12 13  1  0
 13 14  2  0
 14 15  1  0
 15 16  2  0
 16 17  1  0
 17 18  1  0
 18 19  1  0
 18 20  2  0
 17 21  2  0
 11 22  2  0
  5 23  1  0
 23 24  2  0
 24 25  1  0
 24  2  1  0
 22  7  1  0
 21 13  1  0
M  END
>  <Compound_ID>  (603) 
CHEMBL1909381

>  <Molecule Name>  (603) 
GW575808A

>  <Molecular Weight>  (603) 
371.83

>  <AlogP>  (603) 
3.08

>  <Smiles>  (603) 
Cc1ccc(Nc2ccnc(Nc3cccc(C(N)=O)c3)n2)cc1O

>  <Standard Type>  (603) 
Inhibition

>  <Standard Relation>  (603) 
'='

>  <Standard Units>  (603) 
%

>  <Standard Value>  (603) 
-0.94

>  <Assay ChEMBL ID>  (603) 
CHEMBL1962240

>  <Assay Description>  (603) 
GSK_PKIS: ALK mean inhibition at 0.1 uM [Nanosyn]

>  <BAO Format ID>  (603) 
BAO_0000357

>  <BAO Label>  (603) 
single protein format

>  <Assay Organism>  (603) 
None

>  <Target ChEMBL ID>  (603) 
CHEMBL4247

>  <Target Name>  (603) 
ALK tyrosine kinase receptor

>  <Target Organism>  (603) 
Homo sapiens

>  <Target Type>  (603) 
SINGLE PROTEIN

>  <Document ChEMBL ID>  (603) 
CHEMBL1961873

>  <Source Description>  (603) 
GSK Published Kinase Inhibitor Set

>  <Document Journal>  (603) 
nan

>  <Document Year>  (603) 
nan

>  <Active>  (603) 
0.0

>  <bits>  (603) 
<rdkit.DataStructs.cDataStructs.ExplicitBitVect object at 0x000002422F16D5B0>

>  <Group>  (603) 
G2

$$$$

     RDKit          2D

 25 29  0  0  0  0  0  0  0  0999 V2000
   -5.1814   -2.6490    0.0000 C   0  0  0  0  0  0  0  0  0  0  0  0
   -3.7548   -2.1855    0.0000 C   0  0  0  0  0  0  0  0  0  0  0  0
   -2.6401   -3.1891    0.0000 C   0  0  0  0  0  0  0  0  0  0  0  0
   -1.2135   -2.7256    0.0000 C   0  0  0  0  0  0  0  0  0  0  0  0
   -0.0000   -3.6073    0.0000 C   0  0  0  0  0  0  0  0  0  0  0  0
    1.2135   -2.7256    0.0000 N   0  0  0  0  0  0  0  0  0  0  0  0
    0.7500   -1.2990    0.0000 N   0  0  0  0  0  0  0  0  0  0  0  0
    1.5000    0.0000    0.0000 N   0  0  0  0  0  0  0  0  0  0  0  0
    0.7500    1.2990    0.0000 C   0  0  0  0  0  0  0  0  0  0  0  0
    1.5000    2.5981    0.0000 N   0  0  0  0  0  0  0  0  0  0  0  0
    3.0000    2.5981    0.0000 C   0  0  0  0  0  0  0  0  0  0  0  0
    3.7500    3.8971    0.0000 C   0  0  0  0  0  0  0  0  0  0  0  0
    3.0000    5.1962    0.0000 O   0  0  0  0  0  0  0  0  0  0  0  0
    1.5000    5.1962    0.0000 C   0  0  0  0  0  0  0  0  0  0  0  0
    0.7500    3.8971    0.0000 C   0  0  0  0  0  0  0  0  0  0  0  0
   -0.7500    1.2990    0.0000 C   0  0  0  0  0  0  0  0  0  0  0  0
   -1.5000    0.0000    0.0000 C   0  0  0  0  0  0  0  0  0  0  0  0
   -0.7500   -1.2990    0.0000 C   0  0  0  0  0  0  0  0  0  0  0  0
   -2.9520   -4.6564    0.0000 N   0  0  0  0  0  0  0  0  0  0  0  0
   -4.3786   -5.1199    0.0000 C   0  0  0  0  0  0  0  0  0  0  0  0
   -4.6904   -6.5871    0.0000 N   0  0  0  0  0  0  0  0  0  0  0  0
   -6.1170   -7.0506    0.0000 C   0  0  0  0  0  0  0  0  0  0  0  0
   -7.1207   -8.1654    0.0000 C   0  0  0  0  0  0  0  0  0  0  0  0
   -7.5842   -6.7388    0.0000 C   0  0  0  0  0  0  0  0  0  0  0  0
   -5.4933   -4.1162    0.0000 N   0  0  0  0  0  0  0  0  0  0  0  0
  1  2  2  0
  2  3  1  0
  3  4  1  0
  4  5  1  0
  5  6  2  0
  6  7  1  0
  7  8  1  0
  8  9  2  0
  9 10  1  0
 10 11  1  0
 11 12  1  0
 12 13  1  0
 13 14  1  0
 14 15  1  0
  9 16  1  0
 16 17  2  0
 17 18  1  0
  3 19  2  0
 19 20  1  0
 20 21  1  0
 21 22  1  0
 22 23  1  0
 23 24  1  0
 20 25  2  0
 25  1  1  0
 18  4  2  0
 24 22  1  0
 18  7  1  0
 15 10  1  0
M  END
>  <Compound_ID>  (604) 
CHEMBL495771

>  <Molecule Name>  (604) 
GW708336X

>  <Molecular Weight>  (604) 
337.39

>  <AlogP>  (604) 
1.6

>  <Smiles>  (604) 
c1cc(-c2cnn3nc(N4CCOCC4)ccc23)nc(NC2CC2)n1

>  <Standard Type>  (604) 
Inhibition

>  <Standard Relation>  (604) 
'='

>  <Standard Units>  (604) 
%

>  <Standard Value>  (604) 
9.86

>  <Assay ChEMBL ID>  (604) 
CHEMBL1962241

>  <Assay Description>  (604) 
GSK_PKIS: ALK mean inhibition at 1 uM [Nanosyn]

>  <BAO Format ID>  (604) 
BAO_0000357

>  <BAO Label>  (604) 
single protein format

>  <Assay Organism>  (604) 
None

>  <Target ChEMBL ID>  (604) 
CHEMBL4247

>  <Target Name>  (604) 
ALK tyrosine kinase receptor

>  <Target Organism>  (604) 
Homo sapiens

>  <Target Type>  (604) 
SINGLE PROTEIN

>  <Document ChEMBL ID>  (604) 
CHEMBL1961873

>  <Source Description>  (604) 
GSK Published Kinase Inhibitor Set

>  <Document Journal>  (604) 
nan

>  <Document Year>  (604) 
nan

>  <Active>  (604) 
0.0

>  <bits>  (604) 
<rdkit.DataStructs.cDataStructs.ExplicitBitVect object at 0x000002422F16DC40>

>  <Group>  (604) 
G2

$$$$

     RDKit          2D

 34 37  0  0  0  0  0  0  0  0999 V2000
    3.0000    0.0000    0.0000 N   0  0  0  0  0  0  0  0  0  0  0  0
    1.5000    0.0000    0.0000 C   0  0  0  0  0  0  0  0  0  0  0  0
    0.7500   -1.2990    0.0000 N   0  0  0  0  0  0  0  0  0  0  0  0
   -0.7500   -1.2990    0.0000 C   0  0  0  0  0  0  0  0  0  0  0  0
   -1.5000    0.0000    0.0000 N   0  0  0  0  0  0  0  0  0  0  0  0
   -0.7500    1.2990    0.0000 C   0  0  0  0  0  0  0  0  0  0  0  0
   -1.2135    2.7256    0.0000 O   0  0  0  0  0  0  0  0  0  0  0  0
   -0.0000    3.6073    0.0000 C   0  0  0  0  0  0  0  0  0  0  0  0
    1.2135    2.7256    0.0000 C   0  0  0  0  0  0  0  0  0  0  0  0
    2.6401    3.1891    0.0000 C   0  0  0  0  0  0  0  0  0  0  0  0
    3.7548    2.1855    0.0000 C   0  0  0  0  0  0  0  0  0  0  0  0
    5.1814    2.6490    0.0000 C   0  0  0  0  0  0  0  0  0  0  0  0
    5.4933    4.1162    0.0000 C   0  0  0  0  0  0  0  0  0  0  0  0
    6.9199    4.5797    0.0000 N   0  0  0  0  0  0  0  0  0  0  0  0
    8.0346    3.5760    0.0000 C   0  0  0  0  0  0  0  0  0  0  0  0
    7.7227    2.1088    0.0000 O   0  0  0  0  0  0  0  0  0  0  0  0
    9.4612    4.0396    0.0000 N   0  0  0  0  0  0  0  0  0  0  0  0
   10.5759    3.0359    0.0000 C   0  0  0  0  0  0  0  0  0  0  0  0
   10.2640    1.5686    0.0000 C   0  0  0  0  0  0  0  0  0  0  0  0
   11.3787    0.5649    0.0000 C   0  0  0  0  0  0  0  0  0  0  0  0
   11.0669   -0.9023    0.0000 C   0  0  0  0  0  0  0  0  0  0  0  0
   10.7550   -2.3695    0.0000 F   0  0  0  0  0  0  0  0  0  0  0  0
    9.5996   -0.5904    0.0000 F   0  0  0  0  0  0  0  0  0  0  0  0
   12.5341   -1.2141    0.0000 F   0  0  0  0  0  0  0  0  0  0  0  0
   12.8053    1.0285    0.0000 C   0  0  0  0  0  0  0  0  0  0  0  0
   13.1172    2.4957    0.0000 C   0  0  0  0  0  0  0  0  0  0  0  0
   14.5438    2.9592    0.0000 C   0  0  0  0  0  0  0  0  0  0  0  0
   15.9704    3.4227    0.0000 F   0  0  0  0  0  0  0  0  0  0  0  0
   15.0073    1.5326    0.0000 F   0  0  0  0  0  0  0  0  0  0  0  0
   14.0802    4.3858    0.0000 F   0  0  0  0  0  0  0  0  0  0  0  0
   12.0025    3.4994    0.0000 C   0  0  0  0  0  0  0  0  0  0  0  0
    4.3786    5.1199    0.0000 C   0  0  0  0  0  0  0  0  0  0  0  0
    2.9520    4.6564    0.0000 C   0  0  0  0  0  0  0  0  0  0  0  0
    0.7500    1.2990    0.0000 C   0  0  0  0  0  0  0  0  0  0  0  0
  1  2  1  0
  2  3  2  0
  3  4  1  0
  4  5  2  0
  5  6  1  0
  6  7  1  0
  7  8  1  0
  8  9  2  0
  9 10  1  0
 10 11  2  0
 11 12  1  0
 12 13  2  0
 13 14  1  0
 14 15  1  0
 15 16  2  0
 15 17  1  0
 17 18  1  0
 18 19  2  0
 19 20  1  0
 20 21  1  0
 21 22  1  0
 21 23  1  0
 21 24  1  0
 20 25  2  0
 25 26  1  0
 26 27  1  0
 27 28  1  0
 27 29  1  0
 27 30  1  0
 26 31  2  0
 13 32  1  0
 32 33  2  0
  9 34  1  0
 34  2  1  0
 34  6  2  0
 33 10  1  0
 31 18  1  0
M  END
>  <Compound_ID>  (605) 
CHEMBL396107

>  <Molecule Name>  (605) 
GW795486X

>  <Molecular Weight>  (605) 
481.36

>  <AlogP>  (605) 
6.15

>  <Smiles>  (605) 
Nc1ncnc2occ(-c3ccc(NC(=O)Nc4cc(C(F)(F)F)cc(C(F)(F)F)c4)cc3)c12

>  <Standard Type>  (605) 
Inhibition

>  <Standard Relation>  (605) 
'='

>  <Standard Units>  (605) 
%

>  <Standard Value>  (605) 
10.85

>  <Assay ChEMBL ID>  (605) 
CHEMBL1962241

>  <Assay Description>  (605) 
GSK_PKIS: ALK mean inhibition at 1 uM [Nanosyn]

>  <BAO Format ID>  (605) 
BAO_0000357

>  <BAO Label>  (605) 
single protein format

>  <Assay Organism>  (605) 
None

>  <Target ChEMBL ID>  (605) 
CHEMBL4247

>  <Target Name>  (605) 
ALK tyrosine kinase receptor

>  <Target Organism>  (605) 
Homo sapiens

>  <Target Type>  (605) 
SINGLE PROTEIN

>  <Document ChEMBL ID>  (605) 
CHEMBL1961873

>  <Source Description>  (605) 
GSK Published Kinase Inhibitor Set

>  <Document Journal>  (605) 
nan

>  <Document Year>  (605) 
nan

>  <Active>  (605) 
0.0

>  <bits>  (605) 
<rdkit.DataStructs.cDataStructs.ExplicitBitVect object at 0x000002422F16F290>

>  <Group>  (605) 
G2

$$$$

     RDKit          2D

 23 25  0  0  0  0  0  0  0  0999 V2000
    3.0000   -0.0000    0.0000 C   0  0  0  0  0  0  0  0  0  0  0  0
    3.7500   -1.2990    0.0000 C   0  0  0  0  0  0  0  0  0  0  0  0
    5.2500   -1.2990    0.0000 C   0  0  0  0  0  0  0  0  0  0  0  0
    6.0000   -2.5981    0.0000 C   0  0  0  0  0  0  0  0  0  0  0  0
    5.2500   -3.8971    0.0000 C   0  0  0  0  0  0  0  0  0  0  0  0
    6.0000   -5.1962    0.0000 O   0  0  0  0  0  0  0  0  0  0  0  0
    3.7500   -3.8971    0.0000 C   0  0  0  0  0  0  0  0  0  0  0  0
    3.0000   -2.5981    0.0000 C   0  0  0  0  0  0  0  0  0  0  0  0
    1.5000   -2.5981    0.0000 N   0  0  0  0  0  0  0  0  0  0  0  0
    0.7500   -1.2990    0.0000 C   0  0  0  0  0  0  0  0  0  0  0  0
    1.5000    0.0000    0.0000 C   0  0  0  0  0  0  0  0  0  0  0  0
    0.7500    1.2990    0.0000 C   0  0  0  0  0  0  0  0  0  0  0  0
   -0.7500    1.2990    0.0000 N   0  0  0  0  0  0  0  0  0  0  0  0
   -1.5000    0.0000    0.0000 C   0  0  0  0  0  0  0  0  0  0  0  0
   -3.0000    0.0000    0.0000 C   0  0  0  0  0  0  0  0  0  0  0  0
   -3.7500   -1.2990    0.0000 C   0  0  0  0  0  0  0  0  0  0  0  0
   -3.0000   -2.5981    0.0000 C   0  0  0  0  0  0  0  0  0  0  0  0
   -3.7500   -3.8971    0.0000 S   0  0  0  0  0  0  0  0  0  0  0  0
   -4.5000   -5.1962    0.0000 C   0  0  0  0  0  0  0  0  0  0  0  0
   -2.4510   -4.6471    0.0000 O   0  0  0  0  0  0  0  0  0  0  0  0
   -5.0490   -3.1471    0.0000 O   0  0  0  0  0  0  0  0  0  0  0  0
   -1.5000   -2.5981    0.0000 C   0  0  0  0  0  0  0  0  0  0  0  0
   -0.7500   -1.2990    0.0000 C   0  0  0  0  0  0  0  0  0  0  0  0
  1  2  1  0
  2  3  2  0
  3  4  1  0
  4  5  2  0
  5  6  1  0
  5  7  1  0
  7  8  2  0
  8  9  1  0
  9 10  1  0
 10 11  2  0
 11 12  1  0
 12 13  2  0
 13 14  1  0
 14 15  2  0
 15 16  1  0
 16 17  2  0
 17 18  1  0
 18 19  1  0
 18 20  2  0
 18 21  2  0
 17 22  1  0
 22 23  2  0
  8  2  1  0
 23 10  1  0
 23 14  1  0
M  END
>  <Compound_ID>  (606) 
CHEMBL237347

>  <Molecule Name>  (606) 
GW559768X

>  <Molecular Weight>  (606) 
328.39

>  <AlogP>  (606) 
3.4

>  <Smiles>  (606) 
Cc1ccc(O)cc1Nc1ccnc2ccc(S(C)(=O)=O)cc12

>  <Standard Type>  (606) 
Inhibition

>  <Standard Relation>  (606) 
'='

>  <Standard Units>  (606) 
%

>  <Standard Value>  (606) 
2.56

>  <Assay ChEMBL ID>  (606) 
CHEMBL1962240

>  <Assay Description>  (606) 
GSK_PKIS: ALK mean inhibition at 0.1 uM [Nanosyn]

>  <BAO Format ID>  (606) 
BAO_0000357

>  <BAO Label>  (606) 
single protein format

>  <Assay Organism>  (606) 
None

>  <Target ChEMBL ID>  (606) 
CHEMBL4247

>  <Target Name>  (606) 
ALK tyrosine kinase receptor

>  <Target Organism>  (606) 
Homo sapiens

>  <Target Type>  (606) 
SINGLE PROTEIN

>  <Document ChEMBL ID>  (606) 
CHEMBL1961873

>  <Source Description>  (606) 
GSK Published Kinase Inhibitor Set

>  <Document Journal>  (606) 
nan

>  <Document Year>  (606) 
nan

>  <Active>  (606) 
0.0

>  <bits>  (606) 
<rdkit.DataStructs.cDataStructs.ExplicitBitVect object at 0x000002422F16F0D0>

>  <Group>  (606) 
G2

$$$$

     RDKit          2D

 37 41  0  0  0  0  0  0  0  0999 V2000
    3.0000   -5.1962    0.0000 C   0  0  0  0  0  0  0  0  0  0  0  0
    1.5000   -5.1962    0.0000 O   0  0  0  0  0  0  0  0  0  0  0  0
    0.7500   -3.8971    0.0000 C   0  0  0  0  0  0  0  0  0  0  0  0
    1.5000   -2.5981    0.0000 C   0  0  0  0  0  0  0  0  0  0  0  0
    0.7500   -1.2990    0.0000 C   0  0  0  0  0  0  0  0  0  0  0  0
    1.5000    0.0000    0.0000 N   0  0  0  0  0  0  0  0  0  0  0  0
    0.7500    1.2990    0.0000 C   0  0  0  0  0  0  0  0  0  0  0  0
   -0.7500    1.2990    0.0000 C   0  0  0  0  0  0  0  0  0  0  0  0
   -1.5000    0.0000    0.0000 C   0  0  0  0  0  0  0  0  0  0  0  0
   -3.0000    0.0000    0.0000 O   0  0  0  0  0  0  0  0  0  0  0  0
   -3.7500    1.2990    0.0000 C   0  0  0  0  0  0  0  0  0  0  0  0
   -3.0000    2.5981    0.0000 C   0  0  0  0  0  0  0  0  0  0  0  0
   -3.7500    3.8971    0.0000 C   0  0  0  0  0  0  0  0  0  0  0  0
   -5.2500    3.8971    0.0000 C   0  0  0  0  0  0  0  0  0  0  0  0
   -6.0000    5.1962    0.0000 N   0  0  0  0  0  0  0  0  0  0  0  0
   -5.2500    6.4952    0.0000 C   0  0  0  0  0  0  0  0  0  0  0  0
   -3.7500    6.4952    0.0000 O   0  0  0  0  0  0  0  0  0  0  0  0
   -6.0000    7.7942    0.0000 N   0  0  0  0  0  0  0  0  0  0  0  0
   -7.4918    7.9510    0.0000 C   0  0  0  0  0  0  0  0  0  0  0  0
   -7.8037    9.4182    0.0000 C   0  0  0  0  0  0  0  0  0  0  0  0
   -6.5046   10.1682    0.0000 N   0  0  0  0  0  0  0  0  0  0  0  0
   -6.3478   11.6600    0.0000 C   0  0  0  0  0  0  0  0  0  0  0  0
   -4.9775   12.2701    0.0000 C   0  0  0  0  0  0  0  0  0  0  0  0
   -4.8207   13.7619    0.0000 C   0  0  0  0  0  0  0  0  0  0  0  0
   -6.0342   14.6436    0.0000 C   0  0  0  0  0  0  0  0  0  0  0  0
   -7.4046   14.0335    0.0000 C   0  0  0  0  0  0  0  0  0  0  0  0
   -7.5613   12.5417    0.0000 C   0  0  0  0  0  0  0  0  0  0  0  0
   -5.3899    9.1645    0.0000 C   0  0  0  0  0  0  0  0  0  0  0  0
   -3.9227    9.4764    0.0000 O   0  0  0  0  0  0  0  0  0  0  0  0
   -6.0000    2.5981    0.0000 C   0  0  0  0  0  0  0  0  0  0  0  0
   -5.2500    1.2990    0.0000 C   0  0  0  0  0  0  0  0  0  0  0  0
   -6.0000    0.0000    0.0000 F   0  0  0  0  0  0  0  0  0  0  0  0
   -0.7500   -1.2990    0.0000 C   0  0  0  0  0  0  0  0  0  0  0  0
   -1.5000   -2.5981    0.0000 C   0  0  0  0  0  0  0  0  0  0  0  0
   -0.7500   -3.8971    0.0000 C   0  0  0  0  0  0  0  0  0  0  0  0
   -1.5000   -5.1962    0.0000 O   0  0  0  0  0  0  0  0  0  0  0  0
   -3.0000   -5.1962    0.0000 C   0  0  0  0  0  0  0  0  0  0  0  0
  1  2  1  0
  2  3  1  0
  3  4  2  0
  4  5  1  0
  5  6  2  0
  6  7  1  0
  7  8  2  0
  8  9  1  0
  9 10  1  0
 10 11  1  0
 11 12  2  0
 12 13  1  0
 13 14  2  0
 14 15  1  0
 15 16  1  0
 16 17  2  0
 16 18  1  0
 18 19  1  0
 19 20  1  0
 20 21  1  0
 21 22  1  0
 22 23  2  0
 23 24  1  0
 24 25  2  0
 25 26  1  0
 26 27  2  0
 21 28  1  0
 28 29  2  0
 14 30  1  0
 30 31  2  0
 31 32  1  0
  9 33  2  0
 33 34  1  0
 34 35  2  0
 35 36  1  0
 36 37  1  0
 35  3  1  0
 33  5  1  0
 31 11  1  0
 28 18  1  0
 27 22  1  0
M  END
>  <Compound_ID>  (607) 
CHEMBL573761

>  <Molecule Name>  (607) 
nan

>  <Molecular Weight>  (607) 
502.5

>  <AlogP>  (607) 
5.66

>  <Smiles>  (607) 
COc1cc2nccc(Oc3ccc(NC(=O)N4CCN(c5ccccc5)C4=O)cc3F)c2cc1OC

>  <Standard Type>  (607) 
Inhibition

>  <Standard Relation>  (607) 
'='

>  <Standard Units>  (607) 
%

>  <Standard Value>  (607) 
0.0

>  <Assay ChEMBL ID>  (607) 
CHEMBL1047346

>  <Assay Description>  (607) 
Inhibition of ALK at 100 uM

>  <BAO Format ID>  (607) 
BAO_0000357

>  <BAO Label>  (607) 
single protein format

>  <Assay Organism>  (607) 
None

>  <Target ChEMBL ID>  (607) 
CHEMBL4247

>  <Target Name>  (607) 
ALK tyrosine kinase receptor

>  <Target Organism>  (607) 
Homo sapiens

>  <Target Type>  (607) 
SINGLE PROTEIN

>  <Document ChEMBL ID>  (607) 
CHEMBL1154652

>  <Source Description>  (607) 
Scientific Literature

>  <Document Journal>  (607) 
Bioorg Med Chem Lett

>  <Document Year>  (607) 
2009.0

>  <Active>  (607) 
0.0

>  <bits>  (607) 
<rdkit.DataStructs.cDataStructs.ExplicitBitVect object at 0x000002422F16DE00>

>  <Group>  (607) 
G2

$$$$

     RDKit          2D

 21 24  0  0  0  0  0  0  0  0999 V2000
    1.2990   -5.8573    0.0000 C   0  0  0  0  0  0  0  0  0  0  0  0
   -0.0000   -5.1073    0.0000 C   0  0  0  0  0  0  0  0  0  0  0  0
   -0.0000   -3.6073    0.0000 C   0  0  0  0  0  0  0  0  0  0  0  0
    1.2135   -2.7256    0.0000 N   0  0  0  0  0  0  0  0  0  0  0  0
    0.7500   -1.2990    0.0000 N   0  0  0  0  0  0  0  0  0  0  0  0
    1.5000    0.0000    0.0000 N   0  0  0  0  0  0  0  0  0  0  0  0
    0.7500    1.2990    0.0000 C   0  0  0  0  0  0  0  0  0  0  0  0
   -0.7500    1.2990    0.0000 C   0  0  0  0  0  0  0  0  0  0  0  0
   -1.5000    0.0000    0.0000 C   0  0  0  0  0  0  0  0  0  0  0  0
   -0.7500   -1.2990    0.0000 C   0  0  0  0  0  0  0  0  0  0  0  0
   -1.2135   -2.7256    0.0000 C   0  0  0  0  0  0  0  0  0  0  0  0
   -2.6401   -3.1891    0.0000 C   0  0  0  0  0  0  0  0  0  0  0  0
   -3.7548   -2.1855    0.0000 C   0  0  0  0  0  0  0  0  0  0  0  0
   -5.1814   -2.6490    0.0000 C   0  0  0  0  0  0  0  0  0  0  0  0
   -5.4933   -4.1162    0.0000 N   0  0  0  0  0  0  0  0  0  0  0  0
   -4.3786   -5.1199    0.0000 C   0  0  0  0  0  0  0  0  0  0  0  0
   -4.6904   -6.5871    0.0000 N   0  0  0  0  0  0  0  0  0  0  0  0
   -6.1170   -7.0506    0.0000 C   0  0  0  0  0  0  0  0  0  0  0  0
   -7.1207   -8.1654    0.0000 C   0  0  0  0  0  0  0  0  0  0  0  0
   -7.5842   -6.7388    0.0000 C   0  0  0  0  0  0  0  0  0  0  0  0
   -2.9520   -4.6564    0.0000 N   0  0  0  0  0  0  0  0  0  0  0  0
  1  2  1  0
  2  3  1  0
  3  4  2  0
  4  5  1  0
  5  6  1  0
  6  7  2  0
  7  8  1  0
  8  9  2  0
  9 10  1  0
 10 11  2  0
 11 12  1  0
 12 13  2  0
 13 14  1  0
 14 15  2  0
 15 16  1  0
 16 17  1  0
 17 18  1  0
 18 19  1  0
 19 20  1  0
 16 21  2  0
 11  3  1  0
 21 12  1  0
 10  5  1  0
 20 18  1  0
M  END
>  <Compound_ID>  (608) 
CHEMBL524057

>  <Molecule Name>  (608) 
GW683768X

>  <Molecular Weight>  (608) 
280.34

>  <AlogP>  (608) 
2.32

>  <Smiles>  (608) 
CCc1nn2ncccc2c1-c1ccnc(NC2CC2)n1

>  <Standard Type>  (608) 
Inhibition

>  <Standard Relation>  (608) 
'='

>  <Standard Units>  (608) 
%

>  <Standard Value>  (608) 
5.07

>  <Assay ChEMBL ID>  (608) 
CHEMBL1962241

>  <Assay Description>  (608) 
GSK_PKIS: ALK mean inhibition at 1 uM [Nanosyn]

>  <BAO Format ID>  (608) 
BAO_0000357

>  <BAO Label>  (608) 
single protein format

>  <Assay Organism>  (608) 
None

>  <Target ChEMBL ID>  (608) 
CHEMBL4247

>  <Target Name>  (608) 
ALK tyrosine kinase receptor

>  <Target Organism>  (608) 
Homo sapiens

>  <Target Type>  (608) 
SINGLE PROTEIN

>  <Document ChEMBL ID>  (608) 
CHEMBL1961873

>  <Source Description>  (608) 
GSK Published Kinase Inhibitor Set

>  <Document Journal>  (608) 
nan

>  <Document Year>  (608) 
nan

>  <Active>  (608) 
0.0

>  <bits>  (608) 
<rdkit.DataStructs.cDataStructs.ExplicitBitVect object at 0x000002422F16DFC0>

>  <Group>  (608) 
G2

$$$$

     RDKit          2D

 30 33  0  0  0  0  0  0  0  0999 V2000
    2.6401   -3.1891    0.0000 C   0  0  0  0  0  0  0  0  0  0  0  0
    1.2135   -2.7256    0.0000 C   0  0  0  0  0  0  0  0  0  0  0  0
    0.7500   -1.2990    0.0000 C   0  0  0  0  0  0  0  0  0  0  0  0
    1.5000    0.0000    0.0000 C   0  0  0  0  0  0  0  0  0  0  0  0
    0.7500    1.2990    0.0000 C   0  0  0  0  0  0  0  0  0  0  0  0
   -0.7500    1.2990    0.0000 C   0  0  0  0  0  0  0  0  0  0  0  0
   -1.5000    2.5981    0.0000 N   0  0  0  0  0  0  0  0  0  0  0  0
   -0.7500    3.8971    0.0000 C   0  0  0  0  0  0  0  0  0  0  0  0
   -3.0000    2.5981    0.0000 C   0  0  0  0  0  0  0  0  0  0  0  0
   -3.7500    3.8971    0.0000 C   0  0  0  0  0  0  0  0  0  0  0  0
   -5.2500    3.8971    0.0000 C   0  0  0  0  0  0  0  0  0  0  0  0
   -6.0000    2.5981    0.0000 N   0  0  0  0  0  0  0  0  0  0  0  0
   -5.2500    1.2990    0.0000 C   0  0  0  0  0  0  0  0  0  0  0  0
   -6.0000    0.0000    0.0000 N   0  0  0  0  0  0  0  0  0  0  0  0
   -7.5000    0.0000    0.0000 C   0  0  0  0  0  0  0  0  0  0  0  0
   -8.2500    1.2990    0.0000 C   0  0  0  0  0  0  0  0  0  0  0  0
   -9.7500    1.2990    0.0000 C   0  0  0  0  0  0  0  0  0  0  0  0
  -10.5000    0.0000    0.0000 C   0  0  0  0  0  0  0  0  0  0  0  0
   -9.7500   -1.2990    0.0000 C   0  0  0  0  0  0  0  0  0  0  0  0
  -10.5000   -2.5981    0.0000 S   0  0  0  0  0  0  0  0  0  0  0  0
  -11.2500   -3.8971    0.0000 N   0  0  0  0  0  0  0  0  0  0  0  0
  -11.7990   -1.8481    0.0000 O   0  0  0  0  0  0  0  0  0  0  0  0
   -9.2010   -3.3481    0.0000 O   0  0  0  0  0  0  0  0  0  0  0  0
   -8.2500   -1.2990    0.0000 C   0  0  0  0  0  0  0  0  0  0  0  0
   -3.7500    1.2990    0.0000 N   0  0  0  0  0  0  0  0  0  0  0  0
   -1.5000    0.0000    0.0000 C   0  0  0  0  0  0  0  0  0  0  0  0
   -0.7500   -1.2990    0.0000 C   0  0  0  0  0  0  0  0  0  0  0  0
   -1.2135   -2.7256    0.0000 N   0  0  0  0  0  0  0  0  0  0  0  0
   -0.0000   -3.6073    0.0000 N   0  0  0  0  0  0  0  0  0  0  0  0
   -0.0000   -5.1073    0.0000 C   0  0  0  0  0  0  0  0  0  0  0  0
  1  2  1  0
  2  3  2  0
  3  4  1  0
  4  5  2  0
  5  6  1  0
  6  7  1  0
  7  8  1  0
  7  9  1  0
  9 10  2  0
 10 11  1  0
 11 12  2  0
 12 13  1  0
 13 14  1  0
 14 15  1  0
 15 16  2  0
 16 17  1  0
 17 18  2  0
 18 19  1  0
 19 20  1  0
 20 21  1  0
 20 22  2  0
 20 23  2  0
 19 24  2  0
 13 25  2  0
  6 26  2  0
 26 27  1  0
 27 28  2  0
 28 29  1  0
 29 30  1  0
 29  2  1  0
 27  3  1  0
 25  9  1  0
 24 15  1  0
M  END
>  <Compound_ID>  (609) 
CHEMBL1909359

>  <Molecule Name>  (609) 
GW771127A

>  <Molecular Weight>  (609) 
459.96

>  <AlogP>  (609) 
2.83

>  <Smiles>  (609) 
Cc1c2ccc(N(C)c3ccnc(Nc4cccc(S(N)(=O)=O)c4)n3)cc2nn1C

>  <Standard Type>  (609) 
Inhibition

>  <Standard Relation>  (609) 
'='

>  <Standard Units>  (609) 
%

>  <Standard Value>  (609) 
18.82

>  <Assay ChEMBL ID>  (609) 
CHEMBL1962241

>  <Assay Description>  (609) 
GSK_PKIS: ALK mean inhibition at 1 uM [Nanosyn]

>  <BAO Format ID>  (609) 
BAO_0000357

>  <BAO Label>  (609) 
single protein format

>  <Assay Organism>  (609) 
None

>  <Target ChEMBL ID>  (609) 
CHEMBL4247

>  <Target Name>  (609) 
ALK tyrosine kinase receptor

>  <Target Organism>  (609) 
Homo sapiens

>  <Target Type>  (609) 
SINGLE PROTEIN

>  <Document ChEMBL ID>  (609) 
CHEMBL1961873

>  <Source Description>  (609) 
GSK Published Kinase Inhibitor Set

>  <Document Journal>  (609) 
nan

>  <Document Year>  (609) 
nan

>  <Active>  (609) 
0.0

>  <bits>  (609) 
<rdkit.DataStructs.cDataStructs.ExplicitBitVect object at 0x000002422F16DAF0>

>  <Group>  (609) 
G2

$$$$

     RDKit          2D

 23 27  0  0  0  0  0  0  0  0999 V2000
    5.1707    3.5118    0.0000 C   0  0  0  0  0  0  0  0  0  0  0  0
    3.8717    2.7618    0.0000 C   0  0  0  0  0  0  0  0  0  0  0  0
    2.5727    3.5118    0.0000 C   0  0  0  0  0  0  0  0  0  0  0  0
    2.5727    5.0118    0.0000 C   0  0  0  0  0  0  0  0  0  0  0  0
    1.2736    5.7618    0.0000 C   0  0  0  0  0  0  0  0  0  0  0  0
    1.1168    7.2536    0.0000 N   0  0  0  0  0  0  0  0  0  0  0  0
   -0.3504    7.5654    0.0000 C   0  0  0  0  0  0  0  0  0  0  0  0
   -1.1004    6.2664    0.0000 N   0  0  0  0  0  0  0  0  0  0  0  0
   -0.0967    5.1517    0.0000 C   0  0  0  0  0  0  0  0  0  0  0  0
   -0.4086    3.6844    0.0000 C   0  0  0  0  0  0  0  0  0  0  0  0
   -1.8351    3.2209    0.0000 C   0  0  0  0  0  0  0  0  0  0  0  0
   -2.1470    1.7537    0.0000 C   0  0  0  0  0  0  0  0  0  0  0  0
   -1.0323    0.7500    0.0000 C   0  0  0  0  0  0  0  0  0  0  0  0
    0.3943    1.2135    0.0000 C   0  0  0  0  0  0  0  0  0  0  0  0
    0.7062    2.6807    0.0000 C   0  0  0  0  0  0  0  0  0  0  0  0
    1.2760    0.0000    0.0000 O   0  0  0  0  0  0  0  0  0  0  0  0
    0.3943   -1.2135    0.0000 C   0  0  0  0  0  0  0  0  0  0  0  0
   -1.0323   -0.7500    0.0000 O   0  0  0  0  0  0  0  0  0  0  0  0
   -2.5676    6.5782    0.0000 C   0  0  0  0  0  0  0  0  0  0  0  0
   -2.7244    8.0700    0.0000 C   0  0  0  0  0  0  0  0  0  0  0  0
   -1.3541    8.6801    0.0000 C   0  0  0  0  0  0  0  0  0  0  0  0
    3.8717    5.7618    0.0000 N   0  0  0  0  0  0  0  0  0  0  0  0
    5.1707    5.0118    0.0000 C   0  0  0  0  0  0  0  0  0  0  0  0
  1  2  2  0
  2  3  1  0
  3  4  2  0
  4  5  1  0
  5  6  1  0
  6  7  2  0
  7  8  1  0
  8  9  1  0
  9 10  1  0
 10 11  2  0
 11 12  1  0
 12 13  2  0
 13 14  1  0
 14 15  2  0
 14 16  1  0
 16 17  1  0
 17 18  1  0
  8 19  1  0
 19 20  1  0
 20 21  1  0
  4 22  1  0
 22 23  2  0
 23  1  1  0
  9  5  2  0
 15 10  1  0
 21  7  1  0
 18 13  1  0
M  END
>  <Compound_ID>  (610) 
CHEMBL1909377

>  <Molecule Name>  (610) 
nan

>  <Molecular Weight>  (610) 
341.8

>  <AlogP>  (610) 
3.29

>  <Smiles>  (610) 
c1ccc(-c2nc3n(c2-c2ccc4c(c2)OCO4)CCC3)nc1

>  <Standard Type>  (610) 
Inhibition

>  <Standard Relation>  (610) 
'='

>  <Standard Units>  (610) 
%

>  <Standard Value>  (610) 
0.99

>  <Assay ChEMBL ID>  (610) 
CHEMBL1962240

>  <Assay Description>  (610) 
GSK_PKIS: ALK mean inhibition at 0.1 uM [Nanosyn]

>  <BAO Format ID>  (610) 
BAO_0000357

>  <BAO Label>  (610) 
single protein format

>  <Assay Organism>  (610) 
None

>  <Target ChEMBL ID>  (610) 
CHEMBL4247

>  <Target Name>  (610) 
ALK tyrosine kinase receptor

>  <Target Organism>  (610) 
Homo sapiens

>  <Target Type>  (610) 
SINGLE PROTEIN

>  <Document ChEMBL ID>  (610) 
CHEMBL1961873

>  <Source Description>  (610) 
GSK Published Kinase Inhibitor Set

>  <Document Journal>  (610) 
nan

>  <Document Year>  (610) 
nan

>  <Active>  (610) 
0.0

>  <bits>  (610) 
<rdkit.DataStructs.cDataStructs.ExplicitBitVect object at 0x000002422F16DCB0>

>  <Group>  (610) 
G2

$$$$

     RDKit          2D

 25 28  0  0  0  0  0  0  0  0999 V2000
    1.5000    0.0000    0.0000 C   0  0  0  0  0  0  0  0  0  0  0  0
    0.7500   -1.2990    0.0000 C   0  0  0  0  0  0  0  0  0  0  0  0
   -0.7500   -1.2990    0.0000 C   0  0  0  0  0  0  0  0  0  0  0  0
   -1.5000    0.0000    0.0000 C   0  0  0  0  0  0  0  0  0  0  0  0
   -3.0000    0.0000    0.0000 O   0  0  0  0  0  0  0  0  0  0  0  0
   -3.7500    1.2990    0.0000 C   0  0  0  0  0  0  0  0  0  0  0  0
   -3.0000    2.5981    0.0000 C   0  0  0  0  0  0  0  0  0  0  0  0
   -3.7500    3.8971    0.0000 C   0  0  0  0  0  0  0  0  0  0  0  0
   -5.2500    3.8971    0.0000 C   0  0  0  0  0  0  0  0  0  0  0  0
   -6.0000    5.1962    0.0000 N   0  0  0  0  0  0  0  0  0  0  0  0
   -5.2500    6.4952    0.0000 C   0  0  0  0  0  0  0  0  0  0  0  0
   -5.8601    7.8655    0.0000 N   0  0  0  0  0  0  0  0  0  0  0  0
   -4.7454    8.8692    0.0000 C   0  0  0  0  0  0  0  0  0  0  0  0
   -3.4463    8.1192    0.0000 C   0  0  0  0  0  0  0  0  0  0  0  0
   -2.0760    8.7293    0.0000 C   0  0  0  0  0  0  0  0  0  0  0  0
   -0.8625    7.8476    0.0000 C   0  0  0  0  0  0  0  0  0  0  0  0
    0.5078    8.4577    0.0000 C   0  0  0  0  0  0  0  0  0  0  0  0
    0.6646    9.9495    0.0000 C   0  0  0  0  0  0  0  0  0  0  0  0
   -0.5489   10.8312    0.0000 C   0  0  0  0  0  0  0  0  0  0  0  0
   -1.9192   10.2211    0.0000 C   0  0  0  0  0  0  0  0  0  0  0  0
   -3.7582    6.6520    0.0000 O   0  0  0  0  0  0  0  0  0  0  0  0
   -6.0000    2.5981    0.0000 C   0  0  0  0  0  0  0  0  0  0  0  0
   -5.2500    1.2990    0.0000 C   0  0  0  0  0  0  0  0  0  0  0  0
   -0.7500    1.2990    0.0000 C   0  0  0  0  0  0  0  0  0  0  0  0
    0.7500    1.2990    0.0000 C   0  0  0  0  0  0  0  0  0  0  0  0
  1  2  2  0
  2  3  1  0
  3  4  2  0
  4  5  1  0
  5  6  1  0
  6  7  2  0
  7  8  1  0
  8  9  2  0
  9 10  1  0
 10 11  1  0
 11 12  2  0
 12 13  1  0
 13 14  2  0
 14 15  1  0
 15 16  2  0
 16 17  1  0
 17 18  2  0
 18 19  1  0
 19 20  2  0
 14 21  1  0
  9 22  1  0
 22 23  2  0
  4 24  1  0
 24 25  2  0
 25  1  1  0
 23  6  1  0
 21 11  1  0
 20 15  1  0
M  END
>  <Compound_ID>  (611) 
CHEMBL1909341

>  <Molecule Name>  (611) 
GW641155A

>  <Molecular Weight>  (611) 
364.83

>  <AlogP>  (611) 
5.88

>  <Smiles>  (611) 
c1ccc(Oc2ccc(Nc3ncc(-c4ccccc4)o3)cc2)cc1

>  <Standard Type>  (611) 
Inhibition

>  <Standard Relation>  (611) 
'='

>  <Standard Units>  (611) 
%

>  <Standard Value>  (611) 
0.41

>  <Assay ChEMBL ID>  (611) 
CHEMBL1962240

>  <Assay Description>  (611) 
GSK_PKIS: ALK mean inhibition at 0.1 uM [Nanosyn]

>  <BAO Format ID>  (611) 
BAO_0000357

>  <BAO Label>  (611) 
single protein format

>  <Assay Organism>  (611) 
None

>  <Target ChEMBL ID>  (611) 
CHEMBL4247

>  <Target Name>  (611) 
ALK tyrosine kinase receptor

>  <Target Organism>  (611) 
Homo sapiens

>  <Target Type>  (611) 
SINGLE PROTEIN

>  <Document ChEMBL ID>  (611) 
CHEMBL1961873

>  <Source Description>  (611) 
GSK Published Kinase Inhibitor Set

>  <Document Journal>  (611) 
nan

>  <Document Year>  (611) 
nan

>  <Active>  (611) 
0.0

>  <bits>  (611) 
<rdkit.DataStructs.cDataStructs.ExplicitBitVect object at 0x000002422F16F990>

>  <Group>  (611) 
G2

$$$$

     RDKit          2D

 21 23  0  0  0  0  0  0  0  0999 V2000
   -6.2940    7.2357    0.0000 C   0  0  0  0  0  0  0  0  0  0  0  0
   -7.7206    6.7722    0.0000 O   0  0  0  0  0  0  0  0  0  0  0  0
   -8.0325    5.3050    0.0000 C   0  0  0  0  0  0  0  0  0  0  0  0
   -6.9177    4.3013    0.0000 C   0  0  0  0  0  0  0  0  0  0  0  0
   -7.2296    2.8340    0.0000 C   0  0  0  0  0  0  0  0  0  0  0  0
   -6.1149    1.8303    0.0000 C   0  0  0  0  0  0  0  0  0  0  0  0
   -4.6883    2.2939    0.0000 N   0  0  0  0  0  0  0  0  0  0  0  0
   -3.5736    1.2902    0.0000 N   0  0  0  0  0  0  0  0  0  0  0  0
   -2.1470    1.7537    0.0000 C   0  0  0  0  0  0  0  0  0  0  0  0
   -1.8351    3.2209    0.0000 N   0  0  0  0  0  0  0  0  0  0  0  0
   -0.4086    3.6844    0.0000 C   0  0  0  0  0  0  0  0  0  0  0  0
    0.7062    2.6807    0.0000 N   0  0  0  0  0  0  0  0  0  0  0  0
    0.3943    1.2135    0.0000 C   0  0  0  0  0  0  0  0  0  0  0  0
    1.2760    0.0000    0.0000 N   0  0  0  0  0  0  0  0  0  0  0  0
    0.3943   -1.2135    0.0000 N   0  0  0  0  0  0  0  0  0  0  0  0
   -1.0323   -0.7500    0.0000 C   0  0  0  0  0  0  0  0  0  0  0  0
   -1.0323    0.7500    0.0000 C   0  0  0  0  0  0  0  0  0  0  0  0
   -8.6562    2.3705    0.0000 C   0  0  0  0  0  0  0  0  0  0  0  0
   -9.7709    3.3742    0.0000 C   0  0  0  0  0  0  0  0  0  0  0  0
   -9.4590    4.8414    0.0000 C   0  0  0  0  0  0  0  0  0  0  0  0
  -10.5738    5.8451    0.0000 O   0  0  0  0  0  0  0  0  0  0  0  0
  1  2  1  0
  2  3  1  0
  3  4  2  0
  4  5  1  0
  5  6  1  0
  6  7  2  0
  7  8  1  0
  8  9  1  0
  9 10  2  0
 10 11  1  0
 11 12  2  0
 12 13  1  0
 13 14  1  0
 14 15  1  0
 15 16  2  0
 16 17  1  0
  5 18  2  0
 18 19  1  0
 19 20  2  0
 20 21  1  0
 20  3  1  0
 17  9  1  0
 17 13  2  0
M  END
>  <Compound_ID>  (612) 
CHEMBL66004

>  <Molecule Name>  (612) 
GW578748X

>  <Molecular Weight>  (612) 
284.28

>  <AlogP>  (612) 
1.51

>  <Smiles>  (612) 
COc1cc(/C=N/Nc2ncnc3[nH]ncc23)ccc1O

>  <Standard Type>  (612) 
Inhibition

>  <Standard Relation>  (612) 
'='

>  <Standard Units>  (612) 
%

>  <Standard Value>  (612) 
8.84

>  <Assay ChEMBL ID>  (612) 
CHEMBL1962241

>  <Assay Description>  (612) 
GSK_PKIS: ALK mean inhibition at 1 uM [Nanosyn]

>  <BAO Format ID>  (612) 
BAO_0000357

>  <BAO Label>  (612) 
single protein format

>  <Assay Organism>  (612) 
None

>  <Target ChEMBL ID>  (612) 
CHEMBL4247

>  <Target Name>  (612) 
ALK tyrosine kinase receptor

>  <Target Organism>  (612) 
Homo sapiens

>  <Target Type>  (612) 
SINGLE PROTEIN

>  <Document ChEMBL ID>  (612) 
CHEMBL1961873

>  <Source Description>  (612) 
GSK Published Kinase Inhibitor Set

>  <Document Journal>  (612) 
nan

>  <Document Year>  (612) 
nan

>  <Active>  (612) 
0.0

>  <bits>  (612) 
<rdkit.DataStructs.cDataStructs.ExplicitBitVect object at 0x000002422F16DE70>

>  <Group>  (612) 
G2

$$$$

     RDKit          2D

 29 32  0  0  0  0  0  0  0  0999 V2000
   -3.0000   -5.1962    0.0000 O   0  0  0  0  0  0  0  0  0  0  0  0
   -3.7500   -3.8971    0.0000 C   0  0  0  0  0  0  0  0  0  0  0  0
   -5.2500   -3.8971    0.0000 C   0  0  0  0  0  0  0  0  0  0  0  0
   -6.0000   -5.1962    0.0000 C   0  0  0  0  0  0  0  0  0  0  0  0
   -7.5000   -5.1962    0.0000 C   0  0  0  0  0  0  0  0  0  0  0  0
   -8.2500   -3.8971    0.0000 C   0  0  0  0  0  0  0  0  0  0  0  0
   -9.7500   -3.8971    0.0000 C   0  0  0  0  0  0  0  0  0  0  0  0
  -10.5000   -5.1962    0.0000 C   0  0  0  0  0  0  0  0  0  0  0  0
  -12.0000   -5.1962    0.0000 Cl  0  0  0  0  0  0  0  0  0  0  0  0
   -9.7500   -6.4952    0.0000 C   0  0  0  0  0  0  0  0  0  0  0  0
   -8.2500   -6.4952    0.0000 C   0  0  0  0  0  0  0  0  0  0  0  0
   -3.0000   -2.5981    0.0000 N   0  0  0  0  0  0  0  0  0  0  0  0
   -1.5000   -2.5981    0.0000 C   0  0  0  0  0  0  0  0  0  0  0  0
   -0.7500   -3.8971    0.0000 C   0  0  0  0  0  0  0  0  0  0  0  0
    0.7500   -3.8971    0.0000 C   0  0  0  0  0  0  0  0  0  0  0  0
    1.5000   -5.1962    0.0000 S   0  0  0  0  0  0  0  0  0  0  0  0
    0.7500   -6.4952    0.0000 C   0  0  0  0  0  0  0  0  0  0  0  0
    1.3601   -7.8655    0.0000 N   0  0  0  0  0  0  0  0  0  0  0  0
    0.2454   -8.8692    0.0000 C   0  0  0  0  0  0  0  0  0  0  0  0
   -1.0537   -8.1192    0.0000 N   0  0  0  0  0  0  0  0  0  0  0  0
   -0.7418   -6.6520    0.0000 N   0  0  0  0  0  0  0  0  0  0  0  0
    1.5000   -2.5981    0.0000 C   0  0  0  0  0  0  0  0  0  0  0  0
    3.0000   -2.5981    0.0000 O   0  0  0  0  0  0  0  0  0  0  0  0
    0.7500   -1.2990    0.0000 C   0  0  0  0  0  0  0  0  0  0  0  0
    1.5000    0.0000    0.0000 C   0  0  0  0  0  0  0  0  0  0  0  0
    0.7500    1.2990    0.0000 C   0  0  0  0  0  0  0  0  0  0  0  0
   -0.7500    1.2990    0.0000 C   0  0  0  0  0  0  0  0  0  0  0  0
   -1.5000    0.0000    0.0000 C   0  0  0  0  0  0  0  0  0  0  0  0
   -0.7500   -1.2990    0.0000 C   0  0  0  0  0  0  0  0  0  0  0  0
  1  2  2  0
  2  3  1  0
  3  4  2  0
  4  5  1  0
  5  6  2  0
  6  7  1  0
  7  8  2  0
  8  9  1  0
  8 10  1  0
 10 11  2  0
  2 12  1  0
 12 13  1  0
 13 14  2  0
 14 15  1  0
 15 16  1  0
 16 17  1  0
 17 18  2  0
 18 19  1  0
 19 20  2  0
 20 21  1  0
 15 22  2  0
 22 23  1  0
 22 24  1  0
 24 25  2  0
 25 26  1  0
 26 27  2  0
 27 28  1  0
 28 29  2  0
 11  5  1  0
 29 13  1  0
 21 17  1  0
 29 24  1  0
M  END
>  <Compound_ID>  (613) 
CHEMBL2391415

>  <Molecule Name>  (613) 
nan

>  <Molecular Weight>  (613) 
422.9

>  <AlogP>  (613) 
5.12

>  <Smiles>  (613) 
O=C(/C=C/c1ccc(Cl)cc1)Nc1cc(Sc2ncn[nH]2)c(O)c2ccccc12

>  <Standard Type>  (613) 
Inhibition

>  <Standard Relation>  (613) 
'='

>  <Standard Units>  (613) 
%

>  <Standard Value>  (613) 
0.7

>  <Assay ChEMBL ID>  (613) 
CHEMBL2394291

>  <Assay Description>  (613) 
Inhibition of ALK (unknown origin) at 10 uM after 30 mins by fluorescence assay

>  <BAO Format ID>  (613) 
BAO_0000357

>  <BAO Label>  (613) 
single protein format

>  <Assay Organism>  (613) 
Homo sapiens

>  <Target ChEMBL ID>  (613) 
CHEMBL4247

>  <Target Name>  (613) 
ALK tyrosine kinase receptor

>  <Target Organism>  (613) 
Homo sapiens

>  <Target Type>  (613) 
SINGLE PROTEIN

>  <Document ChEMBL ID>  (613) 
CHEMBL2390901

>  <Source Description>  (613) 
Scientific Literature

>  <Document Journal>  (613) 
Eur J Med Chem

>  <Document Year>  (613) 
2013.0

>  <Active>  (613) 
0.0

>  <bits>  (613) 
<rdkit.DataStructs.cDataStructs.ExplicitBitVect object at 0x000002422F16E7A0>

>  <Group>  (613) 
G2

$$$$

     RDKit          2D

 24 26  0  0  0  0  0  0  0  0999 V2000
    3.0000    0.0000    0.0000 C   0  0  0  0  0  0  0  0  0  0  0  0
    1.5000    0.0000    0.0000 C   0  0  0  0  0  0  0  0  0  0  0  0
    0.7500   -1.2990    0.0000 C   0  0  0  0  0  0  0  0  0  0  0  0
   -0.7500   -1.2990    0.0000 C   0  0  0  0  0  0  0  0  0  0  0  0
   -1.5000   -2.5981    0.0000 Cl  0  0  0  0  0  0  0  0  0  0  0  0
   -1.5000    0.0000    0.0000 C   0  0  0  0  0  0  0  0  0  0  0  0
   -0.7500    1.2990    0.0000 C   0  0  0  0  0  0  0  0  0  0  0  0
    0.7500    1.2990    0.0000 C   0  0  0  0  0  0  0  0  0  0  0  0
    1.2135    2.7256    0.0000 N   0  0  0  0  0  0  0  0  0  0  0  0
    0.0000    3.6073    0.0000 C   0  0  0  0  0  0  0  0  0  0  0  0
    0.0000    5.1073    0.0000 O   0  0  0  0  0  0  0  0  0  0  0  0
   -1.2135    2.7256    0.0000 C   0  0  0  0  0  0  0  0  0  0  0  0
   -2.6401    3.1891    0.0000 N   0  0  0  0  0  0  0  0  0  0  0  0
   -2.9520    4.6564    0.0000 N   0  0  0  0  0  0  0  0  0  0  0  0
   -4.3786    5.1199    0.0000 C   0  0  0  0  0  0  0  0  0  0  0  0
   -4.6904    6.5871    0.0000 C   0  0  0  0  0  0  0  0  0  0  0  0
   -6.1170    7.0506    0.0000 C   0  0  0  0  0  0  0  0  0  0  0  0
   -7.2317    6.0469    0.0000 C   0  0  0  0  0  0  0  0  0  0  0  0
   -8.6583    6.5105    0.0000 S   0  0  0  0  0  0  0  0  0  0  0  0
  -10.0849    6.9740    0.0000 N   0  0  0  0  0  0  0  0  0  0  0  0
   -8.1948    7.9371    0.0000 O   0  0  0  0  0  0  0  0  0  0  0  0
   -9.1218    5.0839    0.0000 O   0  0  0  0  0  0  0  0  0  0  0  0
   -6.9199    4.5797    0.0000 C   0  0  0  0  0  0  0  0  0  0  0  0
   -5.4933    4.1162    0.0000 C   0  0  0  0  0  0  0  0  0  0  0  0
  1  2  1  0
  2  3  2  0
  3  4  1  0
  4  5  1  0
  4  6  2  0
  6  7  1  0
  7  8  2  0
  8  9  1  0
  9 10  1  0
 10 11  2  0
 10 12  1  0
 12 13  2  3
 13 14  1  0
 14 15  1  0
 15 16  2  0
 16 17  1  0
 17 18  2  0
 18 19  1  0
 19 20  1  0
 19 21  2  0
 19 22  2  0
 18 23  1  0
 23 24  2  0
  8  2  1  0
 24 15  1  0
 12  7  1  0
M  END
>  <Compound_ID>  (614) 
CHEMBL1909397

>  <Molecule Name>  (614) 
GW279320X

>  <Molecular Weight>  (614) 
364.81

>  <AlogP>  (614) 
2.06

>  <Smiles>  (614) 
Cc1cc(Cl)cc2c1NC(=O)C2=NNc1ccc(S(N)(=O)=O)cc1

>  <Standard Type>  (614) 
Inhibition

>  <Standard Relation>  (614) 
'='

>  <Standard Units>  (614) 
%

>  <Standard Value>  (614) 
1.88

>  <Assay ChEMBL ID>  (614) 
CHEMBL1962241

>  <Assay Description>  (614) 
GSK_PKIS: ALK mean inhibition at 1 uM [Nanosyn]

>  <BAO Format ID>  (614) 
BAO_0000357

>  <BAO Label>  (614) 
single protein format

>  <Assay Organism>  (614) 
None

>  <Target ChEMBL ID>  (614) 
CHEMBL4247

>  <Target Name>  (614) 
ALK tyrosine kinase receptor

>  <Target Organism>  (614) 
Homo sapiens

>  <Target Type>  (614) 
SINGLE PROTEIN

>  <Document ChEMBL ID>  (614) 
CHEMBL1961873

>  <Source Description>  (614) 
GSK Published Kinase Inhibitor Set

>  <Document Journal>  (614) 
nan

>  <Document Year>  (614) 
nan

>  <Active>  (614) 
0.0

>  <bits>  (614) 
<rdkit.DataStructs.cDataStructs.ExplicitBitVect object at 0x000002422F16EAB0>

>  <Group>  (614) 
G2

$$$$

     RDKit          2D

 22 24  0  0  0  0  0  0  0  0999 V2000
    3.0000    0.0000    0.0000 C   0  0  0  0  0  0  0  0  0  0  0  0
    1.5000    0.0000    0.0000 C   0  0  0  0  0  0  0  0  0  0  0  0
    0.7500   -1.2990    0.0000 C   0  0  0  0  0  0  0  0  0  0  0  0
   -0.7500   -1.2990    0.0000 C   0  0  0  0  0  0  0  0  0  0  0  0
   -1.5000   -2.5981    0.0000 O   0  0  0  0  0  0  0  0  0  0  0  0
   -1.5000    0.0000    0.0000 C   0  0  0  0  0  0  0  0  0  0  0  0
   -0.7500    1.2990    0.0000 C   0  0  0  0  0  0  0  0  0  0  0  0
   -1.5000    2.5981    0.0000 C   0  0  0  0  0  0  0  0  0  0  0  0
    0.7500    1.2990    0.0000 C   0  0  0  0  0  0  0  0  0  0  0  0
    1.5000    2.5981    0.0000 C   0  0  0  0  0  0  0  0  0  0  0  0
    3.0000    2.5981    0.0000 C   0  0  0  0  0  0  0  0  0  0  0  0
    3.7500    3.8971    0.0000 C   0  0  0  0  0  0  0  0  0  0  0  0
    5.2500    3.8971    0.0000 C   0  0  0  0  0  0  0  0  0  0  0  0
    6.0000    5.1962    0.0000 N   0  0  0  0  0  0  0  0  0  0  0  0
    5.2500    6.4952    0.0000 C   0  0  0  0  0  0  0  0  0  0  0  0
    3.7500    6.4952    0.0000 C   0  0  0  0  0  0  0  0  0  0  0  0
    3.0000    7.7942    0.0000 C   0  0  0  0  0  0  0  0  0  0  0  0
    1.5082    7.9510    0.0000 N   0  0  0  0  0  0  0  0  0  0  0  0
    1.1963    9.4182    0.0000 N   0  0  0  0  0  0  0  0  0  0  0  0
    2.4954   10.1682    0.0000 N   0  0  0  0  0  0  0  0  0  0  0  0
    3.6101    9.1645    0.0000 N   0  0  0  0  0  0  0  0  0  0  0  0
    3.0000    5.1962    0.0000 C   0  0  0  0  0  0  0  0  0  0  0  0
  1  2  1  0
  2  3  2  0
  3  4  1  0
  4  5  1  0
  4  6  2  0
  6  7  1  0
  7  8  1  0
  7  9  2  0
  9 10  1  0
 10 11  2  0
 11 12  1  0
 12 13  2  0
 13 14  1  0
 14 15  2  0
 15 16  1  0
 16 17  1  0
 17 18  1  0
 18 19  2  0
 19 20  1  0
 20 21  1  0
 16 22  2  0
  9  2  1  0
 22 12  1  0
 21 17  2  0
M  END
>  <Compound_ID>  (615) 
CHEMBL1909352

>  <Molecule Name>  (615) 
GW441806A

>  <Molecular Weight>  (615) 
329.79

>  <AlogP>  (615) 
2.75

>  <Smiles>  (615) 
Cc1cc(O)cc(C)c1/C=C/c1cncc(-c2nn[nH]n2)c1

>  <Standard Type>  (615) 
Inhibition

>  <Standard Relation>  (615) 
'='

>  <Standard Units>  (615) 
%

>  <Standard Value>  (615) 
4.03

>  <Assay ChEMBL ID>  (615) 
CHEMBL1962241

>  <Assay Description>  (615) 
GSK_PKIS: ALK mean inhibition at 1 uM [Nanosyn]

>  <BAO Format ID>  (615) 
BAO_0000357

>  <BAO Label>  (615) 
single protein format

>  <Assay Organism>  (615) 
None

>  <Target ChEMBL ID>  (615) 
CHEMBL4247

>  <Target Name>  (615) 
ALK tyrosine kinase receptor

>  <Target Organism>  (615) 
Homo sapiens

>  <Target Type>  (615) 
SINGLE PROTEIN

>  <Document ChEMBL ID>  (615) 
CHEMBL1961873

>  <Source Description>  (615) 
GSK Published Kinase Inhibitor Set

>  <Document Journal>  (615) 
nan

>  <Document Year>  (615) 
nan

>  <Active>  (615) 
0.0

>  <bits>  (615) 
<rdkit.DataStructs.cDataStructs.ExplicitBitVect object at 0x000002422F16F4C0>

>  <Group>  (615) 
G2

$$$$

     RDKit          2D

 27 30  0  0  0  0  0  0  0  0999 V2000
   -3.0000   -4.0981    0.0000 O   0  0  0  0  0  0  0  0  0  0  0  0
   -3.0000   -2.5981    0.0000 S   0  0  0  0  0  0  0  0  0  0  0  0
   -3.0000   -1.0981    0.0000 O   0  0  0  0  0  0  0  0  0  0  0  0
   -4.5000   -2.5981    0.0000 N   0  0  0  0  0  0  0  0  0  0  0  0
   -5.2500   -1.2990    0.0000 C   0  0  0  0  0  0  0  0  0  0  0  0
   -4.5000    0.0000    0.0000 C   0  0  0  0  0  0  0  0  0  0  0  0
   -5.2500    1.2990    0.0000 C   0  0  0  0  0  0  0  0  0  0  0  0
   -6.7500    1.2990    0.0000 C   0  0  0  0  0  0  0  0  0  0  0  0
   -7.5000    2.5981    0.0000 O   0  0  0  0  0  0  0  0  0  0  0  0
   -7.5000    0.0000    0.0000 C   0  0  0  0  0  0  0  0  0  0  0  0
   -9.0000    0.0000    0.0000 S   0  0  0  0  0  0  0  0  0  0  0  0
   -9.7500   -1.2990    0.0000 C   0  0  0  0  0  0  0  0  0  0  0  0
   -9.1399   -2.6694    0.0000 N   0  0  0  0  0  0  0  0  0  0  0  0
  -10.2546   -3.6731    0.0000 C   0  0  0  0  0  0  0  0  0  0  0  0
  -11.5537   -2.9231    0.0000 N   0  0  0  0  0  0  0  0  0  0  0  0
  -11.2418   -1.4558    0.0000 N   0  0  0  0  0  0  0  0  0  0  0  0
   -6.7500   -1.2990    0.0000 C   0  0  0  0  0  0  0  0  0  0  0  0
   -1.5000   -2.5981    0.0000 C   0  0  0  0  0  0  0  0  0  0  0  0
   -0.7500   -3.8971    0.0000 C   0  0  0  0  0  0  0  0  0  0  0  0
    0.7500   -3.8971    0.0000 C   0  0  0  0  0  0  0  0  0  0  0  0
    1.5000   -2.5981    0.0000 C   0  0  0  0  0  0  0  0  0  0  0  0
    0.7500   -1.2990    0.0000 C   0  0  0  0  0  0  0  0  0  0  0  0
    1.5000    0.0000    0.0000 C   0  0  0  0  0  0  0  0  0  0  0  0
    0.7500    1.2990    0.0000 C   0  0  0  0  0  0  0  0  0  0  0  0
   -0.7500    1.2990    0.0000 C   0  0  0  0  0  0  0  0  0  0  0  0
   -1.5000    0.0000    0.0000 C   0  0  0  0  0  0  0  0  0  0  0  0
   -0.7500   -1.2990    0.0000 C   0  0  0  0  0  0  0  0  0  0  0  0
  1  2  2  0
  2  3  2  0
  2  4  1  0
  4  5  1  0
  5  6  2  0
  6  7  1  0
  7  8  2  0
  8  9  1  0
  8 10  1  0
 10 11  1  0
 11 12  1  0
 12 13  2  0
 13 14  1  0
 14 15  2  0
 15 16  1  0
 10 17  2  0
  2 18  1  0
 18 19  2  0
 19 20  1  0
 20 21  2  0
 21 22  1  0
 22 23  2  0
 23 24  1  0
 24 25  2  0
 25 26  1  0
 26 27  2  0
 17  5  1  0
 27 18  1  0
 16 12  1  0
 27 22  1  0
M  END
>  <Compound_ID>  (616) 
CHEMBL2436723

>  <Molecule Name>  (616) 
nan

>  <Molecular Weight>  (616) 
398.47

>  <AlogP>  (616) 
3.62

>  <Smiles>  (616) 
O=S(=O)(Nc1ccc(O)c(Sc2ncn[nH]2)c1)c1cccc2ccccc12

>  <Standard Type>  (616) 
Inhibition

>  <Standard Relation>  (616) 
'='

>  <Standard Units>  (616) 
%

>  <Standard Value>  (616) 
10.02

>  <Assay ChEMBL ID>  (616) 
CHEMBL2438115

>  <Assay Description>  (616) 
Inhibition of ALK (unknown origin) at 10 uM after 30 mins by fluorescence assay relative to control

>  <BAO Format ID>  (616) 
BAO_0000357

>  <BAO Label>  (616) 
single protein format

>  <Assay Organism>  (616) 
Homo sapiens

>  <Target ChEMBL ID>  (616) 
CHEMBL4247

>  <Target Name>  (616) 
ALK tyrosine kinase receptor

>  <Target Organism>  (616) 
Homo sapiens

>  <Target Type>  (616) 
SINGLE PROTEIN

>  <Document ChEMBL ID>  (616) 
CHEMBL2434840

>  <Source Description>  (616) 
Scientific Literature

>  <Document Journal>  (616) 
Eur J Med Chem

>  <Document Year>  (616) 
2013.0

>  <Active>  (616) 
0.0

>  <bits>  (616) 
<rdkit.DataStructs.cDataStructs.ExplicitBitVect object at 0x000002422F16FA00>

>  <Group>  (616) 
G2

$$$$

     RDKit          2D

 21 23  0  0  0  0  0  0  0  0999 V2000
   -6.7407   -9.9851    0.0000 F   0  0  0  0  0  0  0  0  0  0  0  0
   -6.4289   -8.5179    0.0000 C   0  0  0  0  0  0  0  0  0  0  0  0
   -7.8961   -8.2060    0.0000 F   0  0  0  0  0  0  0  0  0  0  0  0
   -4.9617   -8.8297    0.0000 F   0  0  0  0  0  0  0  0  0  0  0  0
   -6.1170   -7.0506    0.0000 C   0  0  0  0  0  0  0  0  0  0  0  0
   -4.6904   -6.5871    0.0000 N   0  0  0  0  0  0  0  0  0  0  0  0
   -4.3786   -5.1199    0.0000 C   0  0  0  0  0  0  0  0  0  0  0  0
   -5.4933   -4.1162    0.0000 N   0  0  0  0  0  0  0  0  0  0  0  0
   -5.1814   -2.6490    0.0000 C   0  0  0  0  0  0  0  0  0  0  0  0
   -3.7548   -2.1855    0.0000 C   0  0  0  0  0  0  0  0  0  0  0  0
   -2.6401   -3.1891    0.0000 C   0  0  0  0  0  0  0  0  0  0  0  0
   -1.2135   -2.7256    0.0000 C   0  0  0  0  0  0  0  0  0  0  0  0
   -0.0000   -3.6073    0.0000 C   0  0  0  0  0  0  0  0  0  0  0  0
    1.2135   -2.7256    0.0000 N   0  0  0  0  0  0  0  0  0  0  0  0
    0.7500   -1.2990    0.0000 N   0  0  0  0  0  0  0  0  0  0  0  0
    1.5000    0.0000    0.0000 N   0  0  0  0  0  0  0  0  0  0  0  0
    0.7500    1.2990    0.0000 C   0  0  0  0  0  0  0  0  0  0  0  0
   -0.7500    1.2990    0.0000 C   0  0  0  0  0  0  0  0  0  0  0  0
   -1.5000    0.0000    0.0000 C   0  0  0  0  0  0  0  0  0  0  0  0
   -0.7500   -1.2990    0.0000 C   0  0  0  0  0  0  0  0  0  0  0  0
   -2.9520   -4.6564    0.0000 N   0  0  0  0  0  0  0  0  0  0  0  0
  1  2  1  0
  2  3  1  0
  2  4  1  0
  2  5  1  0
  5  6  1  0
  6  7  1  0
  7  8  2  0
  8  9  1  0
  9 10  2  0
 10 11  1  0
 11 12  1  0
 12 13  1  0
 13 14  2  0
 14 15  1  0
 15 16  1  0
 16 17  2  0
 17 18  1  0
 18 19  2  0
 19 20  1  0
 11 21  2  0
 21  7  1  0
 20 12  2  0
 20 15  1  0
M  END
>  <Compound_ID>  (617) 
CHEMBL446024

>  <Molecule Name>  (617) 
GW683003X

>  <Molecular Weight>  (617) 
294.24

>  <AlogP>  (617) 
2.16

>  <Smiles>  (617) 
FC(F)(F)CNc1nccc(-c2cnn3ncccc23)n1

>  <Standard Type>  (617) 
Inhibition

>  <Standard Relation>  (617) 
'='

>  <Standard Units>  (617) 
%

>  <Standard Value>  (617) 
2.79

>  <Assay ChEMBL ID>  (617) 
CHEMBL1962240

>  <Assay Description>  (617) 
GSK_PKIS: ALK mean inhibition at 0.1 uM [Nanosyn]

>  <BAO Format ID>  (617) 
BAO_0000357

>  <BAO Label>  (617) 
single protein format

>  <Assay Organism>  (617) 
None

>  <Target ChEMBL ID>  (617) 
CHEMBL4247

>  <Target Name>  (617) 
ALK tyrosine kinase receptor

>  <Target Organism>  (617) 
Homo sapiens

>  <Target Type>  (617) 
SINGLE PROTEIN

>  <Document ChEMBL ID>  (617) 
CHEMBL1961873

>  <Source Description>  (617) 
GSK Published Kinase Inhibitor Set

>  <Document Journal>  (617) 
nan

>  <Document Year>  (617) 
nan

>  <Active>  (617) 
0.0

>  <bits>  (617) 
<rdkit.DataStructs.cDataStructs.ExplicitBitVect object at 0x000002422F16EC70>

>  <Group>  (617) 
G2

$$$$

     RDKit          2D

 26 28  0  0  0  0  0  0  0  0999 V2000
    6.5218   -4.2298    0.0000 C   0  0  0  0  0  0  0  0  0  0  0  0
    5.3083   -3.3481    0.0000 C   0  0  0  0  0  0  0  0  0  0  0  0
    5.3083   -1.8481    0.0000 N   0  0  0  0  0  0  0  0  0  0  0  0
    3.8817   -1.3846    0.0000 N   0  0  0  0  0  0  0  0  0  0  0  0
    3.0000   -2.5981    0.0000 C   0  0  0  0  0  0  0  0  0  0  0  0
    1.5000   -2.5981    0.0000 S   0  0  0  0  0  0  0  0  0  0  0  0
    0.7500   -1.2990    0.0000 C   0  0  0  0  0  0  0  0  0  0  0  0
    1.5000    0.0000    0.0000 C   0  0  0  0  0  0  0  0  0  0  0  0
    0.7500    1.2990    0.0000 C   0  0  0  0  0  0  0  0  0  0  0  0
    1.5000    2.5981    0.0000 N   0  0  0  0  0  0  0  0  0  0  0  0
    3.0000    2.5981    0.0000 C   0  0  0  0  0  0  0  0  0  0  0  0
    3.7500    1.2990    0.0000 O   0  0  0  0  0  0  0  0  0  0  0  0
    3.7500    3.8971    0.0000 C   0  0  0  0  0  0  0  0  0  0  0  0
    5.2500    3.8971    0.0000 C   0  0  0  0  0  0  0  0  0  0  0  0
    6.0000    5.1962    0.0000 C   0  0  0  0  0  0  0  0  0  0  0  0
    5.2500    6.4952    0.0000 C   0  0  0  0  0  0  0  0  0  0  0  0
    6.0000    7.7942    0.0000 N   0  0  0  0  0  4  0  0  0  0  0  0
    5.2500    9.0933    0.0000 O   0  0  0  0  0  0  0  0  0  0  0  0
    7.5000    7.7942    0.0000 O   0  0  0  0  0  1  0  0  0  0  0  0
    3.7500    6.4952    0.0000 C   0  0  0  0  0  0  0  0  0  0  0  0
    3.0000    5.1962    0.0000 C   0  0  0  0  0  0  0  0  0  0  0  0
   -0.7500    1.2990    0.0000 C   0  0  0  0  0  0  0  0  0  0  0  0
   -1.5000    0.0000    0.0000 C   0  0  0  0  0  0  0  0  0  0  0  0
   -0.7500   -1.2990    0.0000 C   0  0  0  0  0  0  0  0  0  0  0  0
   -1.5000   -2.5981    0.0000 O   0  0  0  0  0  0  0  0  0  0  0  0
    3.8817   -3.8116    0.0000 S   0  0  0  0  0  0  0  0  0  0  0  0
  1  2  1  0
  2  3  2  0
  3  4  1  0
  4  5  2  0
  5  6  1  0
  6  7  1  0
  7  8  2  0
  8  9  1  0
  9 10  1  0
 10 11  1  0
 11 12  2  0
 11 13  1  0
 13 14  2  0
 14 15  1  0
 15 16  2  0
 16 17  1  0
 17 18  2  0
 17 19  1  0
 16 20  1  0
 20 21  2  0
  9 22  2  0
 22 23  1  0
 23 24  2  0
 24 25  1  0
  5 26  1  0
 26  2  1  0
 24  7  1  0
 21 13  1  0
M  CHG  2  17   1  19  -1
M  END
>  <Compound_ID>  (618) 
CHEMBL2436640

>  <Molecule Name>  (618) 
nan

>  <Molecular Weight>  (618) 
388.43

>  <AlogP>  (618) 
3.86

>  <Smiles>  (618) 
Cc1nnc(Sc2cc(NC(=O)c3ccc([N+](=O)[O-])cc3)ccc2O)s1

>  <Standard Type>  (618) 
Inhibition

>  <Standard Relation>  (618) 
'='

>  <Standard Units>  (618) 
%

>  <Standard Value>  (618) 
13.98

>  <Assay ChEMBL ID>  (618) 
CHEMBL2438115

>  <Assay Description>  (618) 
Inhibition of ALK (unknown origin) at 10 uM after 30 mins by fluorescence assay relative to control

>  <BAO Format ID>  (618) 
BAO_0000357

>  <BAO Label>  (618) 
single protein format

>  <Assay Organism>  (618) 
Homo sapiens

>  <Target ChEMBL ID>  (618) 
CHEMBL4247

>  <Target Name>  (618) 
ALK tyrosine kinase receptor

>  <Target Organism>  (618) 
Homo sapiens

>  <Target Type>  (618) 
SINGLE PROTEIN

>  <Document ChEMBL ID>  (618) 
CHEMBL2434840

>  <Source Description>  (618) 
Scientific Literature

>  <Document Journal>  (618) 
Eur J Med Chem

>  <Document Year>  (618) 
2013.0

>  <Active>  (618) 
0.0

>  <bits>  (618) 
<rdkit.DataStructs.cDataStructs.ExplicitBitVect object at 0x000002422F16FC30>

>  <Group>  (618) 
G2

$$$$

     RDKit          2D

 24 26  0  0  0  0  0  0  0  0999 V2000
    3.7500   -1.2990    0.0000 N   0  0  0  0  0  0  0  0  0  0  0  0
    3.0000    0.0000    0.0000 C   0  0  0  0  0  0  0  0  0  0  0  0
    3.7500    1.2990    0.0000 O   0  0  0  0  0  0  0  0  0  0  0  0
    1.5000    0.0000    0.0000 C   0  0  0  0  0  0  0  0  0  0  0  0
    0.7500   -1.2990    0.0000 C   0  0  0  0  0  0  0  0  0  0  0  0
   -0.7500   -1.2990    0.0000 C   0  0  0  0  0  0  0  0  0  0  0  0
   -1.5000    0.0000    0.0000 C   0  0  0  0  0  0  0  0  0  0  0  0
   -0.7500    1.2990    0.0000 C   0  0  0  0  0  0  0  0  0  0  0  0
   -1.5000    2.5981    0.0000 N   0  0  0  0  0  0  0  0  0  0  0  0
   -0.7500    3.8971    0.0000 C   0  0  0  0  0  0  0  0  0  0  0  0
    0.7500    3.8971    0.0000 N   0  0  0  0  0  0  0  0  0  0  0  0
    1.5000    5.1962    0.0000 C   0  0  0  0  0  0  0  0  0  0  0  0
    0.7500    6.4952    0.0000 C   0  0  0  0  0  0  0  0  0  0  0  0
   -0.7500    6.4952    0.0000 C   0  0  0  0  0  0  0  0  0  0  0  0
   -1.5000    7.7942    0.0000 N   0  0  0  0  0  0  0  0  0  0  0  0
   -0.7500    9.0933    0.0000 C   0  0  0  0  0  0  0  0  0  0  0  0
    0.7500    9.0933    0.0000 C   0  0  0  0  0  0  0  0  0  0  0  0
    1.5000   10.3923    0.0000 C   0  0  0  0  0  0  0  0  0  0  0  0
    0.7500   11.6913    0.0000 C   0  0  0  0  0  0  0  0  0  0  0  0
   -0.7500   11.6913    0.0000 C   0  0  0  0  0  0  0  0  0  0  0  0
   -1.5000   12.9904    0.0000 F   0  0  0  0  0  0  0  0  0  0  0  0
   -1.5000   10.3923    0.0000 C   0  0  0  0  0  0  0  0  0  0  0  0
   -1.5000    5.1962    0.0000 N   0  0  0  0  0  0  0  0  0  0  0  0
    0.7500    1.2990    0.0000 C   0  0  0  0  0  0  0  0  0  0  0  0
  1  2  1  0
  2  3  2  0
  2  4  1  0
  4  5  2  0
  5  6  1  0
  6  7  2  0
  7  8  1  0
  8  9  1  0
  9 10  1  0
 10 11  2  0
 11 12  1  0
 12 13  2  0
 13 14  1  0
 14 15  1  0
 15 16  1  0
 16 17  2  0
 17 18  1  0
 18 19  2  0
 19 20  1  0
 20 21  1  0
 20 22  2  0
 14 23  2  0
  8 24  2  0
 24  4  1  0
 23 10  1  0
 22 16  1  0
M  END
>  <Compound_ID>  (619) 
CHEMBL1909382

>  <Molecule Name>  (619) 
GW759710A

>  <Molecular Weight>  (619) 
359.79

>  <AlogP>  (619) 
3.2

>  <Smiles>  (619) 
NC(=O)c1cccc(Nc2nccc(Nc3cccc(F)c3)n2)c1

>  <Standard Type>  (619) 
Inhibition

>  <Standard Relation>  (619) 
'='

>  <Standard Units>  (619) 
%

>  <Standard Value>  (619) 
0.23

>  <Assay ChEMBL ID>  (619) 
CHEMBL1962240

>  <Assay Description>  (619) 
GSK_PKIS: ALK mean inhibition at 0.1 uM [Nanosyn]

>  <BAO Format ID>  (619) 
BAO_0000357

>  <BAO Label>  (619) 
single protein format

>  <Assay Organism>  (619) 
None

>  <Target ChEMBL ID>  (619) 
CHEMBL4247

>  <Target Name>  (619) 
ALK tyrosine kinase receptor

>  <Target Organism>  (619) 
Homo sapiens

>  <Target Type>  (619) 
SINGLE PROTEIN

>  <Document ChEMBL ID>  (619) 
CHEMBL1961873

>  <Source Description>  (619) 
GSK Published Kinase Inhibitor Set

>  <Document Journal>  (619) 
nan

>  <Document Year>  (619) 
nan

>  <Active>  (619) 
0.0

>  <bits>  (619) 
<rdkit.DataStructs.cDataStructs.ExplicitBitVect object at 0x000002422F16E1F0>

>  <Group>  (619) 
G2

$$$$

     RDKit          2D

 25 28  0  0  0  0  0  0  0  0999 V2000
    1.5000    0.0000    0.0000 C   0  0  0  0  0  0  0  0  0  0  0  0
    0.7500   -1.2990    0.0000 C   0  0  0  0  0  0  0  0  0  0  0  0
   -0.7500   -1.2990    0.0000 N   0  0  0  0  0  0  0  0  0  0  0  0
   -1.5000    0.0000    0.0000 N   0  0  0  0  0  0  0  0  0  0  0  0
   -2.9672    0.3119    0.0000 N   0  0  0  0  0  0  0  0  0  0  0  0
   -3.1240    1.8037    0.0000 C   0  0  0  0  0  0  0  0  0  0  0  0
   -1.7537    2.4138    0.0000 C   0  0  0  0  0  0  0  0  0  0  0  0
   -1.4418    3.8810    0.0000 C   0  0  0  0  0  0  0  0  0  0  0  0
   -0.0152    4.3445    0.0000 C   0  0  0  0  0  0  0  0  0  0  0  0
    0.2966    5.8117    0.0000 C   0  0  0  0  0  0  0  0  0  0  0  0
   -0.8181    6.8154    0.0000 N   0  0  0  0  0  0  0  0  0  0  0  0
   -2.2447    6.3519    0.0000 C   0  0  0  0  0  0  0  0  0  0  0  0
   -3.3594    7.3556    0.0000 N   0  0  0  0  0  0  0  0  0  0  0  0
   -3.0475    8.8228    0.0000 C   0  0  0  0  0  0  0  0  0  0  0  0
   -4.1622    9.8265    0.0000 C   0  0  0  0  0  0  0  0  0  0  0  0
   -3.8504   11.2937    0.0000 C   0  0  0  0  0  0  0  0  0  0  0  0
   -4.9651   12.2974    0.0000 N   0  0  0  0  0  0  0  0  0  0  0  0
   -4.6532   13.7646    0.0000 C   0  0  0  0  0  0  0  0  0  0  0  0
   -5.7679   14.7683    0.0000 C   0  0  0  0  0  0  0  0  0  0  0  0
   -7.1945   14.3048    0.0000 O   0  0  0  0  0  0  0  0  0  0  0  0
   -7.5064   12.8376    0.0000 C   0  0  0  0  0  0  0  0  0  0  0  0
   -6.3917   11.8339    0.0000 C   0  0  0  0  0  0  0  0  0  0  0  0
   -2.5565    4.8847    0.0000 N   0  0  0  0  0  0  0  0  0  0  0  0
   -0.7500    1.2990    0.0000 C   0  0  0  0  0  0  0  0  0  0  0  0
    0.7500    1.2990    0.0000 C   0  0  0  0  0  0  0  0  0  0  0  0
  1  2  1  0
  2  3  2  0
  3  4  1  0
  4  5  1  0
  5  6  2  0
  6  7  1  0
  7  8  1  0
  8  9  2  0
  9 10  1  0
 10 11  2  0
 11 12  1  0
 12 13  1  0
 13 14  1  0
 14 15  1  0
 15 16  1  0
 16 17  1  0
 17 18  1  0
 18 19  1  0
 19 20  1  0
 20 21  1  0
 21 22  1  0
 12 23  2  0
  7 24  2  0
 24 25  1  0
 25  1  2  0
 24  4  1  0
 23  8  1  0
 22 17  1  0
M  END
>  <Compound_ID>  (620) 
CHEMBL524901

>  <Molecule Name>  (620) 
GW683109X

>  <Molecular Weight>  (620) 
339.4

>  <AlogP>  (620) 
1.32

>  <Smiles>  (620) 
c1cnn2ncc(-c3ccnc(NCCCN4CCOCC4)n3)c2c1

>  <Standard Type>  (620) 
Inhibition

>  <Standard Relation>  (620) 
'='

>  <Standard Units>  (620) 
%

>  <Standard Value>  (620) 
2.15

>  <Assay ChEMBL ID>  (620) 
CHEMBL1962240

>  <Assay Description>  (620) 
GSK_PKIS: ALK mean inhibition at 0.1 uM [Nanosyn]

>  <BAO Format ID>  (620) 
BAO_0000357

>  <BAO Label>  (620) 
single protein format

>  <Assay Organism>  (620) 
None

>  <Target ChEMBL ID>  (620) 
CHEMBL4247

>  <Target Name>  (620) 
ALK tyrosine kinase receptor

>  <Target Organism>  (620) 
Homo sapiens

>  <Target Type>  (620) 
SINGLE PROTEIN

>  <Document ChEMBL ID>  (620) 
CHEMBL1961873

>  <Source Description>  (620) 
GSK Published Kinase Inhibitor Set

>  <Document Journal>  (620) 
nan

>  <Document Year>  (620) 
nan

>  <Active>  (620) 
0.0

>  <bits>  (620) 
<rdkit.DataStructs.cDataStructs.ExplicitBitVect object at 0x000002422F16F370>

>  <Group>  (620) 
G2

$$$$

     RDKit          2D

 35 39  0  0  0  0  0  0  0  0999 V2000
    1.9775   -9.6721    0.0000 C   0  0  0  0  0  0  0  0  0  0  0  0
    3.3478   -9.0619    0.0000 C   0  0  0  0  0  0  0  0  0  0  0  0
    4.5613   -9.9436    0.0000 C   0  0  0  0  0  0  0  0  0  0  0  0
    3.5046   -7.5702    0.0000 N   0  0  0  0  0  0  0  0  0  0  0  0
    2.3899   -6.5665    0.0000 N   0  0  0  0  0  0  0  0  0  0  0  0
    3.0000   -5.1962    0.0000 C   0  0  0  0  0  0  0  0  0  0  0  0
    2.2500   -3.8971    0.0000 C   0  0  0  0  0  0  0  0  0  0  0  0
    1.5000   -2.5981    0.0000 C   0  0  0  0  0  0  0  0  0  0  0  0
    0.7500   -1.2990    0.0000 C   0  0  0  0  0  0  0  0  0  0  0  0
    1.5000    0.0000    0.0000 C   0  0  0  0  0  0  0  0  0  0  0  0
    0.7500    1.2990    0.0000 C   0  0  0  0  0  0  0  0  0  0  0  0
   -0.7500    1.2990    0.0000 C   0  0  0  0  0  0  0  0  0  0  0  0
   -1.5000    0.0000    0.0000 C   0  0  0  0  0  0  0  0  0  0  0  0
   -3.0000    0.0000    0.0000 C   0  0  0  0  0  0  0  0  0  0  0  0
   -3.7500   -1.2990    0.0000 C   0  0  0  0  0  0  0  0  0  0  0  0
   -5.2500   -1.2990    0.0000 C   0  0  0  0  0  0  0  0  0  0  0  0
   -6.0000    0.0000    0.0000 C   0  0  0  0  0  0  0  0  0  0  0  0
   -7.5000    0.0000    0.0000 C   0  0  0  0  0  0  0  0  0  0  0  0
   -8.2500   -1.2990    0.0000 C   0  0  0  0  0  0  0  0  0  0  0  0
   -7.5000   -2.5981    0.0000 C   0  0  0  0  0  0  0  0  0  0  0  0
   -8.2500   -3.8971    0.0000 C   0  0  0  0  0  0  0  0  0  0  0  0
   -9.0000   -5.1962    0.0000 F   0  0  0  0  0  0  0  0  0  0  0  0
   -9.5490   -3.1471    0.0000 F   0  0  0  0  0  0  0  0  0  0  0  0
   -6.9510   -4.6471    0.0000 F   0  0  0  0  0  0  0  0  0  0  0  0
   -6.0000   -2.5981    0.0000 C   0  0  0  0  0  0  0  0  0  0  0  0
   -3.0000   -2.5981    0.0000 N   0  0  0  0  0  0  0  0  0  0  0  0
   -1.5000   -2.5981    0.0000 C   0  0  0  0  0  0  0  0  0  0  0  0
   -0.7500   -1.2990    0.0000 C   0  0  0  0  0  0  0  0  0  0  0  0
    4.4918   -5.3529    0.0000 C   0  0  0  0  0  0  0  0  0  0  0  0
    5.6065   -4.3492    0.0000 C   0  0  0  0  0  0  0  0  0  0  0  0
    5.2946   -2.8820    0.0000 N   0  0  0  0  0  0  0  0  0  0  0  0
    7.0331   -4.8128    0.0000 N   0  0  0  0  0  0  0  0  0  0  0  0
    7.3450   -6.2800    0.0000 C   0  0  0  0  0  0  0  0  0  0  0  0
    6.2302   -7.2837    0.0000 N   0  0  0  0  0  0  0  0  0  0  0  0
    4.8037   -6.8202    0.0000 C   0  0  0  0  0  0  0  0  0  0  0  0
  1  2  1  0
  2  3  1  0
  2  4  1  0
  4  5  1  0
  5  6  2  0
  6  7  1  0
  7  8  3  0
  8  9  1  0
  9 10  2  0
 10 11  1  0
 11 12  2  0
 12 13  1  0
 13 14  2  0
 14 15  1  0
 15 16  1  0
 16 17  2  0
 17 18  1  0
 18 19  2  0
 19 20  1  0
 20 21  1  0
 21 22  1  0
 21 23  1  0
 21 24  1  0
 20 25  2  0
 15 26  2  0
 26 27  1  0
 27 28  2  0
  6 29  1  0
 29 30  2  0
 30 31  1  0
 30 32  1  0
 32 33  2  0
 33 34  1  0
 34 35  2  0
 35  4  1  0
 28  9  1  0
 35 29  1  0
 28 13  1  0
 25 16  1  0
M  END
>  <Compound_ID>  (621) 
CHEMBL4247506

>  <Molecule Name>  (621) 
nan

>  <Molecular Weight>  (621) 
472.47

>  <AlogP>  (621) 
5.62

>  <Smiles>  (621) 
CC(C)n1nc(C#Cc2cccc3cc(-c4cccc(C(F)(F)F)c4)ncc23)c2c(N)ncnc21

>  <Standard Type>  (621) 
Inhibition

>  <Standard Relation>  (621) 
'='

>  <Standard Units>  (621) 
%

>  <Standard Value>  (621) 
1.0

>  <Assay ChEMBL ID>  (621) 
CHEMBL4230017

>  <Assay Description>  (621) 
Inhibition of ALK (unknown origin) at 1 uM by mobility shift microfluidics platform based assay relative to control

>  <BAO Format ID>  (621) 
BAO_0000357

>  <BAO Label>  (621) 
single protein format

>  <Assay Organism>  (621) 
Homo sapiens

>  <Target ChEMBL ID>  (621) 
CHEMBL4247

>  <Target Name>  (621) 
ALK tyrosine kinase receptor

>  <Target Organism>  (621) 
Homo sapiens

>  <Target Type>  (621) 
SINGLE PROTEIN

>  <Document ChEMBL ID>  (621) 
CHEMBL4229333

>  <Source Description>  (621) 
Scientific Literature

>  <Document Journal>  (621) 
Eur J Med Chem

>  <Document Year>  (621) 
2018.0

>  <Active>  (621) 
0.0

>  <bits>  (621) 
<rdkit.DataStructs.cDataStructs.ExplicitBitVect object at 0x000002422F16EB90>

>  <Group>  (621) 
G2

$$$$

     RDKit          2D

 35 38  0  0  0  0  0  0  0  0999 V2000
    5.2500   -1.2990    0.0000 C   0  0  0  0  0  0  0  0  0  0  0  0
    3.7500   -1.2990    0.0000 C   0  0  0  0  0  0  0  0  0  0  0  0
    3.0000   -2.5981    0.0000 O   0  0  0  0  0  0  0  0  0  0  0  0
    3.0000    0.0000    0.0000 N   0  0  0  0  0  0  0  0  0  0  0  0
    1.5000    0.0000    0.0000 C   0  0  0  0  0  0  0  0  0  0  0  0
    0.7500   -1.2990    0.0000 C   0  0  0  0  0  0  0  0  0  0  0  0
   -0.7500   -1.2990    0.0000 C   0  0  0  0  0  0  0  0  0  0  0  0
   -1.5000    0.0000    0.0000 C   0  0  0  0  0  0  0  0  0  0  0  0
   -0.7500    1.2990    0.0000 C   0  0  0  0  0  0  0  0  0  0  0  0
   -1.5000    2.5981    0.0000 C   0  0  0  0  0  0  0  0  0  0  0  0
   -2.2500    3.8971    0.0000 C   0  0  0  0  0  0  0  0  0  0  0  0
   -3.0000    5.1962    0.0000 C   0  0  0  0  0  0  0  0  0  0  0  0
   -2.2500    6.4952    0.0000 C   0  0  0  0  0  0  0  0  0  0  0  0
   -3.0000    7.7942    0.0000 N   0  0  0  0  0  0  0  0  0  0  0  0
   -4.5000    7.7942    0.0000 C   0  0  0  0  0  0  0  0  0  0  0  0
   -5.2500    6.4952    0.0000 N   0  0  0  0  0  0  0  0  0  0  0  0
   -4.5000    5.1962    0.0000 C   0  0  0  0  0  0  0  0  0  0  0  0
   -5.2500    3.8971    0.0000 N   0  0  0  0  0  0  0  0  0  0  0  0
   -6.7500    3.8971    0.0000 C   0  0  0  0  0  0  0  0  0  0  0  0
   -7.5000    5.1962    0.0000 C   0  0  0  0  0  0  0  0  0  0  0  0
   -9.0000    5.1962    0.0000 C   0  0  0  0  0  0  0  0  0  0  0  0
   -9.7500    3.8971    0.0000 C   0  0  0  0  0  0  0  0  0  0  0  0
  -11.2500    3.8971    0.0000 O   0  0  0  0  0  0  0  0  0  0  0  0
  -12.0000    5.1962    0.0000 C   0  0  0  0  0  0  0  0  0  0  0  0
  -13.5000    5.1962    0.0000 C   0  0  0  0  0  0  0  0  0  0  0  0
  -14.2500    6.4952    0.0000 C   0  0  0  0  0  0  0  0  0  0  0  0
  -15.7500    6.4952    0.0000 C   0  0  0  0  0  0  0  0  0  0  0  0
  -16.5000    5.1962    0.0000 C   0  0  0  0  0  0  0  0  0  0  0  0
  -15.7500    3.8971    0.0000 C   0  0  0  0  0  0  0  0  0  0  0  0
  -16.5000    2.5981    0.0000 F   0  0  0  0  0  0  0  0  0  0  0  0
  -14.2500    3.8971    0.0000 C   0  0  0  0  0  0  0  0  0  0  0  0
   -9.0000    2.5981    0.0000 C   0  0  0  0  0  0  0  0  0  0  0  0
   -9.7500    1.2990    0.0000 Cl  0  0  0  0  0  0  0  0  0  0  0  0
   -7.5000    2.5981    0.0000 C   0  0  0  0  0  0  0  0  0  0  0  0
    0.7500    1.2990    0.0000 C   0  0  0  0  0  0  0  0  0  0  0  0
  1  2  1  0
  2  3  2  0
  2  4  1  0
  4  5  1  0
  5  6  2  0
  6  7  1  0
  7  8  2  0
  8  9  1  0
  9 10  1  0
 10 11  3  0
 11 12  1  0
 12 13  2  0
 13 14  1  0
 14 15  2  0
 15 16  1  0
 16 17  2  0
 17 18  1  0
 18 19  1  0
 19 20  2  0
 20 21  1  0
 21 22  2  0
 22 23  1  0
 23 24  1  0
 24 25  1  0
 25 26  2  0
 26 27  1  0
 27 28  2  0
 28 29  1  0
 29 30  1  0
 29 31  2  0
 22 32  1  0
 32 33  1  0
 32 34  2  0
  9 35  2  0
 35  5  1  0
 17 12  1  0
 34 19  1  0
 31 25  1  0
M  END
>  <Compound_ID>  (622) 
CHEMBL205798

>  <Molecule Name>  (622) 
GW703087X

>  <Molecular Weight>  (622) 
486.93

>  <AlogP>  (622) 
5.95

>  <Smiles>  (622) 
CC(=O)Nc1cccc(C#Cc2cncnc2Nc2ccc(OCc3cccc(F)c3)c(Cl)c2)c1

>  <Standard Type>  (622) 
Inhibition

>  <Standard Relation>  (622) 
'='

>  <Standard Units>  (622) 
%

>  <Standard Value>  (622) 
1.96

>  <Assay ChEMBL ID>  (622) 
CHEMBL1962240

>  <Assay Description>  (622) 
GSK_PKIS: ALK mean inhibition at 0.1 uM [Nanosyn]

>  <BAO Format ID>  (622) 
BAO_0000357

>  <BAO Label>  (622) 
single protein format

>  <Assay Organism>  (622) 
None

>  <Target ChEMBL ID>  (622) 
CHEMBL4247

>  <Target Name>  (622) 
ALK tyrosine kinase receptor

>  <Target Organism>  (622) 
Homo sapiens

>  <Target Type>  (622) 
SINGLE PROTEIN

>  <Document ChEMBL ID>  (622) 
CHEMBL1961873

>  <Source Description>  (622) 
GSK Published Kinase Inhibitor Set

>  <Document Journal>  (622) 
nan

>  <Document Year>  (622) 
nan

>  <Active>  (622) 
0.0

>  <bits>  (622) 
<rdkit.DataStructs.cDataStructs.ExplicitBitVect object at 0x000002422F16E2D0>

>  <Group>  (622) 
G2

$$$$

     RDKit          2D

 28 31  0  0  0  0  0  0  0  0999 V2000
   -0.4022  -10.3610    0.0000 C   0  0  0  0  0  0  0  0  0  0  0  0
   -0.2454   -8.8692    0.0000 C   0  0  0  0  0  0  0  0  0  0  0  0
    1.0537   -8.1192    0.0000 N   0  0  0  0  0  0  0  0  0  0  0  0
    0.7418   -6.6520    0.0000 N   0  0  0  0  0  0  0  0  0  0  0  0
   -0.7500   -6.4952    0.0000 C   0  0  0  0  0  0  0  0  0  0  0  0
   -1.5000   -5.1962    0.0000 S   0  0  0  0  0  0  0  0  0  0  0  0
   -0.7500   -3.8971    0.0000 C   0  0  0  0  0  0  0  0  0  0  0  0
    0.7500   -3.8971    0.0000 C   0  0  0  0  0  0  0  0  0  0  0  0
    1.5000   -2.5981    0.0000 C   0  0  0  0  0  0  0  0  0  0  0  0
    3.0000   -2.5981    0.0000 N   0  0  0  0  0  0  0  0  0  0  0  0
    3.7500   -3.8971    0.0000 C   0  0  0  0  0  0  0  0  0  0  0  0
    3.0000   -5.1962    0.0000 O   0  0  0  0  0  0  0  0  0  0  0  0
    5.2500   -3.8971    0.0000 C   0  0  0  0  0  0  0  0  0  0  0  0
    6.0000   -5.1962    0.0000 C   0  0  0  0  0  0  0  0  0  0  0  0
    7.5000   -5.1962    0.0000 C   0  0  0  0  0  0  0  0  0  0  0  0
    8.2500   -3.8971    0.0000 C   0  0  0  0  0  0  0  0  0  0  0  0
    9.7500   -3.8971    0.0000 Cl  0  0  0  0  0  0  0  0  0  0  0  0
    7.5000   -2.5981    0.0000 C   0  0  0  0  0  0  0  0  0  0  0  0
    6.0000   -2.5981    0.0000 C   0  0  0  0  0  0  0  0  0  0  0  0
    0.7500   -1.2990    0.0000 C   0  0  0  0  0  0  0  0  0  0  0  0
    1.5000    0.0000    0.0000 C   0  0  0  0  0  0  0  0  0  0  0  0
    0.7500    1.2990    0.0000 C   0  0  0  0  0  0  0  0  0  0  0  0
   -0.7500    1.2990    0.0000 C   0  0  0  0  0  0  0  0  0  0  0  0
   -1.5000    0.0000    0.0000 C   0  0  0  0  0  0  0  0  0  0  0  0
   -0.7500   -1.2990    0.0000 C   0  0  0  0  0  0  0  0  0  0  0  0
   -1.5000   -2.5981    0.0000 C   0  0  0  0  0  0  0  0  0  0  0  0
   -3.0000   -2.5981    0.0000 O   0  0  0  0  0  0  0  0  0  0  0  0
   -1.3601   -7.8655    0.0000 S   0  0  0  0  0  0  0  0  0  0  0  0
  1  2  1  0
  2  3  2  0
  3  4  1  0
  4  5  2  0
  5  6  1  0
  6  7  1  0
  7  8  2  0
  8  9  1  0
  9 10  1  0
 10 11  1  0
 11 12  2  0
 11 13  1  0
 13 14  2  0
 14 15  1  0
 15 16  2  0
 16 17  1  0
 16 18  1  0
 18 19  2  0
  9 20  2  0
 20 21  1  0
 21 22  2  0
 22 23  1  0
 23 24  2  0
 24 25  1  0
 25 26  2  0
 26 27  1  0
  5 28  1  0
 28  2  1  0
 26  7  1  0
 19 13  1  0
 25 20  1  0
M  END
>  <Compound_ID>  (623) 
CHEMBL2391416

>  <Molecule Name>  (623) 
nan

>  <Molecular Weight>  (623) 
427.94

>  <AlogP>  (623) 
5.76

>  <Smiles>  (623) 
Cc1nnc(Sc2cc(NC(=O)c3ccc(Cl)cc3)c3ccccc3c2O)s1

>  <Standard Type>  (623) 
Inhibition

>  <Standard Relation>  (623) 
'='

>  <Standard Units>  (623) 
%

>  <Standard Value>  (623) 
9.25

>  <Assay ChEMBL ID>  (623) 
CHEMBL2394291

>  <Assay Description>  (623) 
Inhibition of ALK (unknown origin) at 10 uM after 30 mins by fluorescence assay

>  <BAO Format ID>  (623) 
BAO_0000357

>  <BAO Label>  (623) 
single protein format

>  <Assay Organism>  (623) 
Homo sapiens

>  <Target ChEMBL ID>  (623) 
CHEMBL4247

>  <Target Name>  (623) 
ALK tyrosine kinase receptor

>  <Target Organism>  (623) 
Homo sapiens

>  <Target Type>  (623) 
SINGLE PROTEIN

>  <Document ChEMBL ID>  (623) 
CHEMBL2390901

>  <Source Description>  (623) 
Scientific Literature

>  <Document Journal>  (623) 
Eur J Med Chem

>  <Document Year>  (623) 
2013.0

>  <Active>  (623) 
0.0

>  <bits>  (623) 
<rdkit.DataStructs.cDataStructs.ExplicitBitVect object at 0x000002422F16DD90>

>  <Group>  (623) 
G2

$$$$

     RDKit          2D

 27 30  0  0  0  0  0  0  0  0999 V2000
    3.0000    0.0000    0.0000 C   0  0  0  0  0  0  0  0  0  0  0  0
    1.5000    0.0000    0.0000 C   0  0  0  0  0  0  0  0  0  0  0  0
    0.7500   -1.2990    0.0000 C   0  0  0  0  0  0  0  0  0  0  0  0
   -0.7500   -1.2990    0.0000 C   0  0  0  0  0  0  0  0  0  0  0  0
   -1.5000    0.0000    0.0000 C   0  0  0  0  0  0  0  0  0  0  0  0
   -3.0000    0.0000    0.0000 N   0  0  0  0  0  0  0  0  0  0  0  0
   -3.7500    1.2990    0.0000 C   0  0  0  0  0  0  0  0  0  0  0  0
   -3.0000    2.5981    0.0000 O   0  0  0  0  0  0  0  0  0  0  0  0
   -5.2500    1.2990    0.0000 C   0  0  0  0  0  0  0  0  0  0  0  0
   -6.0000    2.5981    0.0000 C   0  0  0  0  0  0  0  0  0  0  0  0
   -7.2990    3.3481    0.0000 C   0  0  0  0  0  0  0  0  0  0  0  0
   -6.0000    4.0981    0.0000 C   0  0  0  0  0  0  0  0  0  0  0  0
   -0.7500    1.2990    0.0000 C   0  0  0  0  0  0  0  0  0  0  0  0
    0.7500    1.2990    0.0000 C   0  0  0  0  0  0  0  0  0  0  0  0
    1.5000    2.5981    0.0000 C   0  0  0  0  0  0  0  0  0  0  0  0
    3.0000    2.5981    0.0000 C   0  0  0  0  0  0  0  0  0  0  0  0
    3.7500    3.8971    0.0000 C   0  0  0  0  0  0  0  0  0  0  0  0
    3.0000    5.1962    0.0000 C   0  0  0  0  0  0  0  0  0  0  0  0
    3.7500    6.4952    0.0000 C   0  0  0  0  0  0  0  0  0  0  0  0
    3.0000    7.7942    0.0000 O   0  0  0  0  0  0  0  0  0  0  0  0
    5.2500    6.4952    0.0000 N   0  0  0  0  0  0  0  0  0  0  0  0
    6.0000    7.7942    0.0000 C   0  0  0  0  0  0  0  0  0  0  0  0
    7.5000    7.7942    0.0000 C   0  0  0  0  0  0  0  0  0  0  0  0
    8.7990    8.5442    0.0000 C   0  0  0  0  0  0  0  0  0  0  0  0
    8.7990    7.0442    0.0000 C   0  0  0  0  0  0  0  0  0  0  0  0
    1.5000    5.1962    0.0000 C   0  0  0  0  0  0  0  0  0  0  0  0
    0.7500    3.8971    0.0000 C   0  0  0  0  0  0  0  0  0  0  0  0
  1  2  1  0
  2  3  2  0
  3  4  1  0
  4  5  2  0
  5  6  1  0
  6  7  1  0
  7  8  2  0
  7  9  1  0
  9 10  1  0
 10 11  1  0
 11 12  1  0
  5 13  1  0
 13 14  2  0
 14 15  1  0
 15 16  2  0
 16 17  1  0
 17 18  2  0
 18 19  1  0
 19 20  2  0
 19 21  1  0
 21 22  1  0
 22 23  1  0
 23 24  1  0
 24 25  1  0
 18 26  1  0
 26 27  2  0
 14  2  1  0
 27 15  1  0
 12 10  1  0
 25 23  1  0
M  END
>  <Compound_ID>  (624) 
CHEMBL516908

>  <Molecule Name>  (624) 
GW796920X

>  <Molecular Weight>  (624) 
362.47

>  <AlogP>  (624) 
4.54

>  <Smiles>  (624) 
Cc1ccc(NC(=O)CC2CC2)cc1-c1ccc(C(=O)NCC2CC2)cc1

>  <Standard Type>  (624) 
Inhibition

>  <Standard Relation>  (624) 
'='

>  <Standard Units>  (624) 
%

>  <Standard Value>  (624) 
3.58

>  <Assay ChEMBL ID>  (624) 
CHEMBL1962241

>  <Assay Description>  (624) 
GSK_PKIS: ALK mean inhibition at 1 uM [Nanosyn]

>  <BAO Format ID>  (624) 
BAO_0000357

>  <BAO Label>  (624) 
single protein format

>  <Assay Organism>  (624) 
None

>  <Target ChEMBL ID>  (624) 
CHEMBL4247

>  <Target Name>  (624) 
ALK tyrosine kinase receptor

>  <Target Organism>  (624) 
Homo sapiens

>  <Target Type>  (624) 
SINGLE PROTEIN

>  <Document ChEMBL ID>  (624) 
CHEMBL1961873

>  <Source Description>  (624) 
GSK Published Kinase Inhibitor Set

>  <Document Journal>  (624) 
nan

>  <Document Year>  (624) 
nan

>  <Active>  (624) 
0.0

>  <bits>  (624) 
<rdkit.DataStructs.cDataStructs.ExplicitBitVect object at 0x000002422F16EA40>

>  <Group>  (624) 
G2

$$$$

     RDKit          2D

 42 46  0  0  0  0  0  0  0  0999 V2000
    9.0985   -9.6461    0.0000 C   0  0  0  0  0  0  0  0  0  0  0  0
    7.7282   -9.0360    0.0000 S   0  0  0  0  0  0  0  0  0  0  0  0
    8.3383   -7.6657    0.0000 O   0  0  0  0  0  0  0  0  0  0  0  0
    7.1181  -10.4063    0.0000 O   0  0  0  0  0  0  0  0  0  0  0  0
    6.3579   -8.4259    0.0000 C   0  0  0  0  0  0  0  0  0  0  0  0
    6.2011   -6.9341    0.0000 C   0  0  0  0  0  0  0  0  0  0  0  0
    4.8308   -6.3240    0.0000 N   0  0  0  0  0  0  0  0  0  0  0  0
    4.6740   -4.8322    0.0000 C   0  0  0  0  0  0  0  0  0  0  0  0
    3.3037   -4.2221    0.0000 C   0  0  0  0  0  0  0  0  0  0  0  0
    2.9918   -2.7549    0.0000 N   0  0  0  0  0  0  0  0  0  0  0  0
    1.5000   -2.5981    0.0000 C   0  0  0  0  0  0  0  0  0  0  0  0
    0.7500   -1.2990    0.0000 C   0  0  0  0  0  0  0  0  0  0  0  0
    1.5000    0.0000    0.0000 C   0  0  0  0  0  0  0  0  0  0  0  0
    0.7500    1.2990    0.0000 C   0  0  0  0  0  0  0  0  0  0  0  0
   -0.7500    1.2990    0.0000 C   0  0  0  0  0  0  0  0  0  0  0  0
   -1.5000    2.5981    0.0000 N   0  0  0  0  0  0  0  0  0  0  0  0
   -3.0000    2.5981    0.0000 C   0  0  0  0  0  0  0  0  0  0  0  0
   -3.7500    1.2990    0.0000 N   0  0  0  0  0  0  0  0  0  0  0  0
   -3.0000    0.0000    0.0000 C   0  0  0  0  0  0  0  0  0  0  0  0
   -3.7500   -1.2990    0.0000 N   0  0  0  0  0  0  0  0  0  0  0  0
   -5.2500   -1.2990    0.0000 C   0  0  0  0  0  0  0  0  0  0  0  0
   -6.0000    0.0000    0.0000 C   0  0  0  0  0  0  0  0  0  0  0  0
   -7.5000    0.0000    0.0000 C   0  0  0  0  0  0  0  0  0  0  0  0
   -8.2500   -1.2990    0.0000 C   0  0  0  0  0  0  0  0  0  0  0  0
   -9.7500   -1.2990    0.0000 O   0  0  0  0  0  0  0  0  0  0  0  0
  -10.5000    0.0000    0.0000 C   0  0  0  0  0  0  0  0  0  0  0  0
  -12.0000    0.0000    0.0000 C   0  0  0  0  0  0  0  0  0  0  0  0
  -12.7500    1.2990    0.0000 C   0  0  0  0  0  0  0  0  0  0  0  0
  -14.2500    1.2990    0.0000 C   0  0  0  0  0  0  0  0  0  0  0  0
  -15.0000    0.0000    0.0000 C   0  0  0  0  0  0  0  0  0  0  0  0
  -14.2500   -1.2990    0.0000 C   0  0  0  0  0  0  0  0  0  0  0  0
  -15.0000   -2.5981    0.0000 C   0  0  0  0  0  0  0  0  0  0  0  0
  -15.7500   -3.8971    0.0000 F   0  0  0  0  0  0  0  0  0  0  0  0
  -16.2990   -1.8481    0.0000 F   0  0  0  0  0  0  0  0  0  0  0  0
  -13.7010   -3.3481    0.0000 F   0  0  0  0  0  0  0  0  0  0  0  0
  -12.7500   -1.2990    0.0000 C   0  0  0  0  0  0  0  0  0  0  0  0
   -7.5000   -2.5981    0.0000 C   0  0  0  0  0  0  0  0  0  0  0  0
   -6.0000   -2.5981    0.0000 C   0  0  0  0  0  0  0  0  0  0  0  0
   -1.5000    0.0000    0.0000 C   0  0  0  0  0  0  0  0  0  0  0  0
   -0.7500   -1.2990    0.0000 C   0  0  0  0  0  0  0  0  0  0  0  0
    0.8899   -3.9684    0.0000 C   0  0  0  0  0  0  0  0  0  0  0  0
    2.0046   -4.9721    0.0000 S   0  0  0  0  0  0  0  0  0  0  0  0
  1  2  1  0
  2  3  2  0
  2  4  2  0
  2  5  1  0
  5  6  1  0
  6  7  1  0
  7  8  1  0
  8  9  1  0
  9 10  2  0
 10 11  1  0
 11 12  1  0
 12 13  2  0
 13 14  1  0
 14 15  2  0
 15 16  1  0
 16 17  2  0
 17 18  1  0
 18 19  2  0
 19 20  1  0
 20 21  1  0
 21 22  2  0
 22 23  1  0
 23 24  2  0
 24 25  1  0
 25 26  1  0
 26 27  1  0
 27 28  2  0
 28 29  1  0
 29 30  2  0
 30 31  1  0
 31 32  1  0
 32 33  1  0
 32 34  1  0
 32 35  1  0
 31 36  2  0
 24 37  1  0
 37 38  2  0
 19 39  1  0
 39 40  2  0
 11 41  2  0
 41 42  1  0
 42  9  1  0
 40 12  1  0
 39 15  1  0
 38 21  1  0
 36 27  1  0
M  END
>  <Compound_ID>  (625) 
CHEMBL1909356

>  <Molecule Name>  (625) 
GW569530A

>  <Molecular Weight>  (625) 
650.15

>  <AlogP>  (625) 
6.23

>  <Smiles>  (625) 
CS(=O)(=O)CCNCc1nc(-c2ccc3ncnc(Nc4ccc(OCc5cccc(C(F)(F)F)c5)cc4)c3c2)cs1

>  <Standard Type>  (625) 
Inhibition

>  <Standard Relation>  (625) 
'='

>  <Standard Units>  (625) 
%

>  <Standard Value>  (625) 
6.49

>  <Assay ChEMBL ID>  (625) 
CHEMBL1962241

>  <Assay Description>  (625) 
GSK_PKIS: ALK mean inhibition at 1 uM [Nanosyn]

>  <BAO Format ID>  (625) 
BAO_0000357

>  <BAO Label>  (625) 
single protein format

>  <Assay Organism>  (625) 
None

>  <Target ChEMBL ID>  (625) 
CHEMBL4247

>  <Target Name>  (625) 
ALK tyrosine kinase receptor

>  <Target Organism>  (625) 
Homo sapiens

>  <Target Type>  (625) 
SINGLE PROTEIN

>  <Document ChEMBL ID>  (625) 
CHEMBL1961873

>  <Source Description>  (625) 
GSK Published Kinase Inhibitor Set

>  <Document Journal>  (625) 
nan

>  <Document Year>  (625) 
nan

>  <Active>  (625) 
0.0

>  <bits>  (625) 
<rdkit.DataStructs.cDataStructs.ExplicitBitVect object at 0x000002422F16F1B0>

>  <Group>  (625) 
G2

$$$$

     RDKit          2D

 32 35  0  0  0  0  0  0  0  0999 V2000
    5.2500   -1.2990    0.0000 C   0  0  0  0  0  0  0  0  0  0  0  0
    3.7500   -1.2990    0.0000 N   0  0  0  0  0  0  0  0  0  0  0  0
    3.0000    0.0000    0.0000 C   0  0  0  0  0  0  0  0  0  0  0  0
    3.7500    1.2990    0.0000 O   0  0  0  0  0  0  0  0  0  0  0  0
    1.5000    0.0000    0.0000 C   0  0  0  0  0  0  0  0  0  0  0  0
    0.7500   -1.2990    0.0000 C   0  0  0  0  0  0  0  0  0  0  0  0
   -0.7500   -1.2990    0.0000 C   0  0  0  0  0  0  0  0  0  0  0  0
   -1.5000   -2.5981    0.0000 C   0  0  0  0  0  0  0  0  0  0  0  0
   -3.0000   -2.5981    0.0000 C   0  0  0  0  0  0  0  0  0  0  0  0
   -3.7500   -3.8971    0.0000 C   0  0  0  0  0  0  0  0  0  0  0  0
   -3.0000   -5.1962    0.0000 C   0  0  0  0  0  0  0  0  0  0  0  0
   -3.7500   -6.4952    0.0000 F   0  0  0  0  0  0  0  0  0  0  0  0
   -1.5000   -5.1962    0.0000 C   0  0  0  0  0  0  0  0  0  0  0  0
   -0.7500   -3.8971    0.0000 C   0  0  0  0  0  0  0  0  0  0  0  0
   -1.5000    0.0000    0.0000 C   0  0  0  0  0  0  0  0  0  0  0  0
   -0.7500    1.2990    0.0000 C   0  0  0  0  0  0  0  0  0  0  0  0
   -1.5000    2.5981    0.0000 C   0  0  0  0  0  0  0  0  0  0  0  0
   -0.7500    3.8971    0.0000 C   0  0  0  0  0  0  0  0  0  0  0  0
   -1.5000    5.1962    0.0000 C   0  0  0  0  0  0  0  0  0  0  0  0
   -3.0000    5.1962    0.0000 C   0  0  0  0  0  0  0  0  0  0  0  0
   -3.7500    6.4952    0.0000 S   0  0  0  0  0  0  0  0  0  0  0  0
   -2.4510    7.2452    0.0000 O   0  0  0  0  0  0  0  0  0  0  0  0
   -5.0490    5.7452    0.0000 O   0  0  0  0  0  0  0  0  0  0  0  0
   -4.5000    7.7942    0.0000 N   0  0  0  0  0  0  0  0  0  0  0  0
   -5.9918    7.9510    0.0000 C   0  0  0  0  0  0  0  0  0  0  0  0
   -6.3037    9.4182    0.0000 C   0  0  0  0  0  0  0  0  0  0  0  0
   -5.0046   10.1682    0.0000 C   0  0  0  0  0  0  0  0  0  0  0  0
   -3.8899    9.1645    0.0000 C   0  0  0  0  0  0  0  0  0  0  0  0
   -3.7500    3.8971    0.0000 C   0  0  0  0  0  0  0  0  0  0  0  0
   -3.0000    2.5981    0.0000 C   0  0  0  0  0  0  0  0  0  0  0  0
    0.7500    1.2990    0.0000 C   0  0  0  0  0  0  0  0  0  0  0  0
    1.5000    2.5981    0.0000 N   0  0  0  0  0  0  0  0  0  0  0  0
  1  2  1  0
  2  3  1  0
  3  4  2  0
  3  5  1  0
  5  6  2  0
  6  7  1  0
  7  8  1  0
  8  9  2  0
  9 10  1  0
 10 11  2  0
 11 12  1  0
 11 13  1  0
 13 14  2  0
  7 15  2  0
 15 16  1  0
 16 17  1  0
 17 18  2  0
 18 19  1  0
 19 20  2  0
 20 21  1  0
 21 22  2  0
 21 23  2  0
 21 24  1  0
 24 25  1  0
 25 26  1  0
 26 27  1  0
 27 28  1  0
 20 29  1  0
 29 30  2  0
 16 31  2  0
 31 32  1  0
 31  5  1  0
 14  8  1  0
 30 17  1  0
 28 24  1  0
M  END
>  <Compound_ID>  (626) 
CHEMBL230592

>  <Molecule Name>  (626) 
GSK-635416A

>  <Molecular Weight>  (626) 
453.54

>  <AlogP>  (626) 
3.89

>  <Smiles>  (626) 
CNC(=O)c1cc(-c2ccc(F)cc2)cc(-c2ccc(S(=O)(=O)N3CCCC3)cc2)c1N

>  <Standard Type>  (626) 
Inhibition

>  <Standard Relation>  (626) 
'='

>  <Standard Units>  (626) 
%

>  <Standard Value>  (626) 
2.88

>  <Assay ChEMBL ID>  (626) 
CHEMBL1962241

>  <Assay Description>  (626) 
GSK_PKIS: ALK mean inhibition at 1 uM [Nanosyn]

>  <BAO Format ID>  (626) 
BAO_0000357

>  <BAO Label>  (626) 
single protein format

>  <Assay Organism>  (626) 
None

>  <Target ChEMBL ID>  (626) 
CHEMBL4247

>  <Target Name>  (626) 
ALK tyrosine kinase receptor

>  <Target Organism>  (626) 
Homo sapiens

>  <Target Type>  (626) 
SINGLE PROTEIN

>  <Document ChEMBL ID>  (626) 
CHEMBL1961873

>  <Source Description>  (626) 
GSK Published Kinase Inhibitor Set

>  <Document Journal>  (626) 
nan

>  <Document Year>  (626) 
nan

>  <Active>  (626) 
0.0

>  <bits>  (626) 
<rdkit.DataStructs.cDataStructs.ExplicitBitVect object at 0x000002422F16F7D0>

>  <Group>  (626) 
G2

$$$$

     RDKit          2D

 38 41  0  0  0  0  0  0  0  0999 V2000
    0.7500   -3.8971    0.0000 C   0  0  0  0  0  0  0  0  0  0  0  0
    1.5000   -2.5981    0.0000 N   0  0  0  0  0  0  0  0  0  0  0  0
    0.7500   -1.2990    0.0000 C   0  0  0  0  0  0  0  0  0  0  0  0
    1.5000    0.0000    0.0000 C   0  0  0  0  0  0  0  0  0  0  0  0
    0.7500    1.2990    0.0000 C   0  0  0  0  0  0  0  0  0  0  0  0
   -0.7500    1.2990    0.0000 C   0  0  0  0  0  0  0  0  0  0  0  0
   -1.5000    2.5981    0.0000 N   0  0  0  0  0  0  0  0  0  0  0  0
   -0.7500    3.8971    0.0000 C   0  0  0  0  0  0  0  0  0  0  0  0
    0.7500    3.8971    0.0000 O   0  0  0  0  0  0  0  0  0  0  0  0
   -1.5000    5.1962    0.0000 N   0  0  0  0  0  0  0  0  0  0  0  0
   -0.7500    6.4952    0.0000 C   0  0  0  0  0  0  0  0  0  0  0  0
   -1.5000    7.7942    0.0000 C   0  0  0  0  0  0  0  0  0  0  0  0
   -0.7500    9.0933    0.0000 N   0  0  0  0  0  0  0  0  0  0  0  0
    0.7500    9.0933    0.0000 C   0  0  0  0  0  0  0  0  0  0  0  0
    1.5000   10.3923    0.0000 C   0  0  0  0  0  0  0  0  0  0  0  0
    0.7500   11.6913    0.0000 O   0  0  0  0  0  0  0  0  0  0  0  0
   -0.7500   11.6913    0.0000 C   0  0  0  0  0  0  0  0  0  0  0  0
   -1.5000   10.3923    0.0000 C   0  0  0  0  0  0  0  0  0  0  0  0
   -1.5000    0.0000    0.0000 C   0  0  0  0  0  0  0  0  0  0  0  0
   -0.7500   -1.2990    0.0000 C   0  0  0  0  0  0  0  0  0  0  0  0
    3.0000   -2.5981    0.0000 C   0  0  0  0  0  0  0  0  0  0  0  0
    3.7500   -3.8971    0.0000 C   0  0  0  0  0  0  0  0  0  0  0  0
    5.2500   -3.8971    0.0000 C   0  0  0  0  0  0  0  0  0  0  0  0
    6.0000   -2.5981    0.0000 N   0  0  0  0  0  0  0  0  0  0  0  0
    5.2500   -1.2990    0.0000 C   0  0  0  0  0  0  0  0  0  0  0  0
    6.0000   -0.0000    0.0000 N   0  0  0  0  0  0  0  0  0  0  0  0
    7.5000   -0.0000    0.0000 C   0  0  0  0  0  0  0  0  0  0  0  0
    8.2500   -1.2990    0.0000 C   0  0  0  0  0  0  0  0  0  0  0  0
    9.7500   -1.2990    0.0000 C   0  0  0  0  0  0  0  0  0  0  0  0
   10.5000   -0.0000    0.0000 C   0  0  0  0  0  0  0  0  0  0  0  0
   12.0000   -0.0000    0.0000 C   0  0  0  0  0  0  0  0  0  0  0  0
   12.7500   -1.2990    0.0000 S   0  0  0  0  0  0  0  0  0  0  0  0
   13.5000   -2.5981    0.0000 C   0  0  0  0  0  0  0  0  0  0  0  0
   11.4510   -2.0490    0.0000 O   0  0  0  0  0  0  0  0  0  0  0  0
   14.0490   -0.5490    0.0000 O   0  0  0  0  0  0  0  0  0  0  0  0
    9.7500    1.2990    0.0000 C   0  0  0  0  0  0  0  0  0  0  0  0
    8.2500    1.2990    0.0000 C   0  0  0  0  0  0  0  0  0  0  0  0
    3.7500   -1.2990    0.0000 N   0  0  0  0  0  0  0  0  0  0  0  0
  1  2  1  0
  2  3  1  0
  3  4  2  0
  4  5  1  0
  5  6  2  0
  6  7  1  0
  7  8  1  0
  8  9  2  0
  8 10  1  0
 10 11  1  0
 11 12  1  0
 12 13  1  0
 13 14  1  0
 14 15  1  0
 15 16  1  0
 16 17  1  0
 17 18  1  0
  6 19  1  0
 19 20  2  0
  2 21  1  0
 21 22  2  0
 22 23  1  0
 23 24  2  0
 24 25  1  0
 25 26  1  0
 26 27  1  0
 27 28  2  0
 28 29  1  0
 29 30  2  0
 30 31  1  0
 31 32  1  0
 32 33  1  0
 32 34  2  0
 32 35  2  0
 30 36  1  0
 36 37  2  0
 25 38  2  0
 20  3  1  0
 38 21  1  0
 18 13  1  0
 37 27  1  0
M  END
>  <Compound_ID>  (627) 
CHEMBL1909361

>  <Molecule Name>  (627) 
GW830365A

>  <Molecular Weight>  (627) 
576.12

>  <AlogP>  (627) 
2.99

>  <Smiles>  (627) 
CN(c1ccc(NC(=O)NCCN2CCOCC2)cc1)c1ccnc(Nc2ccc(CS(C)(=O)=O)cc2)n1

>  <Standard Type>  (627) 
Inhibition

>  <Standard Relation>  (627) 
'='

>  <Standard Units>  (627) 
%

>  <Standard Value>  (627) 
2.33

>  <Assay ChEMBL ID>  (627) 
CHEMBL1962240

>  <Assay Description>  (627) 
GSK_PKIS: ALK mean inhibition at 0.1 uM [Nanosyn]

>  <BAO Format ID>  (627) 
BAO_0000357

>  <BAO Label>  (627) 
single protein format

>  <Assay Organism>  (627) 
None

>  <Target ChEMBL ID>  (627) 
CHEMBL4247

>  <Target Name>  (627) 
ALK tyrosine kinase receptor

>  <Target Organism>  (627) 
Homo sapiens

>  <Target Type>  (627) 
SINGLE PROTEIN

>  <Document ChEMBL ID>  (627) 
CHEMBL1961873

>  <Source Description>  (627) 
GSK Published Kinase Inhibitor Set

>  <Document Journal>  (627) 
nan

>  <Document Year>  (627) 
nan

>  <Active>  (627) 
0.0

>  <bits>  (627) 
<rdkit.DataStructs.cDataStructs.ExplicitBitVect object at 0x000002422F16E030>

>  <Group>  (627) 
G2

$$$$

     RDKit          2D

 28 31  0  0  0  0  0  0  0  0999 V2000
    2.1306   -5.7367    0.0000 C   0  0  0  0  0  0  0  0  0  0  0  0
    0.7040   -6.2002    0.0000 O   0  0  0  0  0  0  0  0  0  0  0  0
    0.3922   -7.6675    0.0000 C   0  0  0  0  0  0  0  0  0  0  0  0
    1.5069   -8.6712    0.0000 C   0  0  0  0  0  0  0  0  0  0  0  0
    1.1950  -10.1384    0.0000 C   0  0  0  0  0  0  0  0  0  0  0  0
   -0.2316  -10.6019    0.0000 C   0  0  0  0  0  0  0  0  0  0  0  0
   -1.3463   -9.5982    0.0000 C   0  0  0  0  0  0  0  0  0  0  0  0
   -1.0344   -8.1310    0.0000 C   0  0  0  0  0  0  0  0  0  0  0  0
   -2.1491   -7.1273    0.0000 C   0  0  0  0  0  0  0  0  0  0  0  0
   -1.8373   -5.6601    0.0000 C   0  0  0  0  0  0  0  0  0  0  0  0
   -2.9520   -4.6564    0.0000 C   0  0  0  0  0  0  0  0  0  0  0  0
   -2.6401   -3.1891    0.0000 C   0  0  0  0  0  0  0  0  0  0  0  0
   -1.2135   -2.7256    0.0000 C   0  0  0  0  0  0  0  0  0  0  0  0
   -0.0000   -3.6073    0.0000 C   0  0  0  0  0  0  0  0  0  0  0  0
    0.0000   -5.1073    0.0000 O   0  0  0  0  0  0  0  0  0  0  0  0
    1.2135   -2.7256    0.0000 N   0  0  0  0  0  0  0  0  0  0  0  0
    0.7500   -1.2990    0.0000 C   0  0  0  0  0  0  0  0  0  0  0  0
    1.5000    0.0000    0.0000 N   0  0  0  0  0  0  0  0  0  0  0  0
    0.7500    1.2990    0.0000 C   0  0  0  0  0  0  0  0  0  0  0  0
   -0.7500    1.2990    0.0000 C   0  0  0  0  0  0  0  0  0  0  0  0
   -1.5000    2.5981    0.0000 Br  0  0  0  0  0  0  0  0  0  0  0  0
   -1.5000    0.0000    0.0000 C   0  0  0  0  0  0  0  0  0  0  0  0
   -0.7500   -1.2990    0.0000 C   0  0  0  0  0  0  0  0  0  0  0  0
   -4.3786   -5.1199    0.0000 C   0  0  0  0  0  0  0  0  0  0  0  0
   -4.6904   -6.5871    0.0000 C   0  0  0  0  0  0  0  0  0  0  0  0
   -6.1170   -7.0506    0.0000 Br  0  0  0  0  0  0  0  0  0  0  0  0
   -3.5757   -7.5908    0.0000 C   0  0  0  0  0  0  0  0  0  0  0  0
   -3.8876   -9.0580    0.0000 O   0  0  0  0  0  0  0  0  0  0  0  0
  1  2  1  0
  2  3  1  0
  3  4  2  0
  4  5  1  0
  5  6  2  0
  6  7  1  0
  7  8  2  0
  8  9  1  0
  9 10  2  0
 10 11  1  0
 11 12  1  0
 12 13  2  0
 13 14  1  0
 14 15  2  0
 14 16  1  0
 16 17  1  0
 17 18  2  0
 18 19  1  0
 19 20  2  0
 20 21  1  0
 20 22  1  0
 22 23  2  0
 11 24  2  0
 24 25  1  0
 25 26  1  0
 25 27  2  0
 27 28  1  0
  8  3  1  0
 27  9  1  0
 23 13  1  0
 23 17  1  0
M  END
>  <Compound_ID>  (628) 
CHEMBL176857

>  <Molecule Name>  (628) 
GW442130X

>  <Molecular Weight>  (628) 
502.16

>  <AlogP>  (628) 
5.48

>  <Smiles>  (628) 
COc1ccccc1-c1cc(/C=C2\C(=O)Nc3ncc(Br)cc32)cc(Br)c1O

>  <Standard Type>  (628) 
Inhibition

>  <Standard Relation>  (628) 
'='

>  <Standard Units>  (628) 
%

>  <Standard Value>  (628) 
6.47

>  <Assay ChEMBL ID>  (628) 
CHEMBL1962241

>  <Assay Description>  (628) 
GSK_PKIS: ALK mean inhibition at 1 uM [Nanosyn]

>  <BAO Format ID>  (628) 
BAO_0000357

>  <BAO Label>  (628) 
single protein format

>  <Assay Organism>  (628) 
None

>  <Target ChEMBL ID>  (628) 
CHEMBL4247

>  <Target Name>  (628) 
ALK tyrosine kinase receptor

>  <Target Organism>  (628) 
Homo sapiens

>  <Target Type>  (628) 
SINGLE PROTEIN

>  <Document ChEMBL ID>  (628) 
CHEMBL1961873

>  <Source Description>  (628) 
GSK Published Kinase Inhibitor Set

>  <Document Journal>  (628) 
nan

>  <Document Year>  (628) 
nan

>  <Active>  (628) 
0.0

>  <bits>  (628) 
<rdkit.DataStructs.cDataStructs.ExplicitBitVect object at 0x000002422F16D620>

>  <Group>  (628) 
G2

$$$$

     RDKit          2D

 21 23  0  0  0  0  0  0  0  0999 V2000
    4.0667   -3.6527    0.0000 N   0  0  0  0  0  0  0  0  0  0  0  0
    2.6401   -3.1891    0.0000 C   0  0  0  0  0  0  0  0  0  0  0  0
    1.2135   -2.7256    0.0000 C   0  0  0  0  0  0  0  0  0  0  0  0
   -0.0000   -3.6073    0.0000 C   0  0  0  0  0  0  0  0  0  0  0  0
   -0.0000   -5.1073    0.0000 N   0  0  0  0  0  0  0  0  0  0  0  0
   -1.2990   -5.8573    0.0000 C   0  0  0  0  0  0  0  0  0  0  0  0
   -2.5981   -5.1073    0.0000 O   0  0  0  0  0  0  0  0  0  0  0  0
   -1.2990   -7.3573    0.0000 C   0  0  0  0  0  0  0  0  0  0  0  0
   -2.5981   -8.1073    0.0000 N   0  0  0  0  0  0  0  0  0  0  0  0
   -3.8971   -7.3573    0.0000 C   0  0  0  0  0  0  0  0  0  0  0  0
   -5.1962   -8.1073    0.0000 C   0  0  0  0  0  0  0  0  0  0  0  0
   -5.1962   -9.6073    0.0000 O   0  0  0  0  0  0  0  0  0  0  0  0
   -3.8971  -10.3573    0.0000 C   0  0  0  0  0  0  0  0  0  0  0  0
   -2.5981   -9.6073    0.0000 C   0  0  0  0  0  0  0  0  0  0  0  0
   -1.2135   -2.7256    0.0000 S   0  0  0  0  0  0  0  0  0  0  0  0
   -0.7500   -1.2990    0.0000 C   0  0  0  0  0  0  0  0  0  0  0  0
    0.7500   -1.2990    0.0000 C   0  0  0  0  0  0  0  0  0  0  0  0
    1.5000    0.0000    0.0000 C   0  0  0  0  0  0  0  0  0  0  0  0
    0.7500    1.2990    0.0000 C   0  0  0  0  0  0  0  0  0  0  0  0
   -0.7500    1.2990    0.0000 C   0  0  0  0  0  0  0  0  0  0  0  0
   -1.5000    0.0000    0.0000 C   0  0  0  0  0  0  0  0  0  0  0  0
  1  2  3  0
  2  3  1  0
  3  4  2  0
  4  5  1  0
  5  6  1  0
  6  7  2  0
  6  8  1  0
  8  9  1  0
  9 10  1  0
 10 11  1  0
 11 12  1  0
 12 13  1  0
 13 14  1  0
  4 15  1  0
 15 16  1  0
 16 17  2  0
 17 18  1  0
 18 19  1  0
 19 20  1  0
 20 21  1  0
 17  3  1  0
 14  9  1  0
 21 16  1  0
M  END
>  <Compound_ID>  (629) 
CHEMBL1909342

>  <Molecule Name>  (629) 
nan

>  <Molecular Weight>  (629) 
395.44

>  <AlogP>  (629) 
1.77

>  <Smiles>  (629) 
N#Cc1c(NC(=O)CN2CCOCC2)sc2c1CCCC2

>  <Standard Type>  (629) 
Inhibition

>  <Standard Relation>  (629) 
'='

>  <Standard Units>  (629) 
%

>  <Standard Value>  (629) 
3.56

>  <Assay ChEMBL ID>  (629) 
CHEMBL1962240

>  <Assay Description>  (629) 
GSK_PKIS: ALK mean inhibition at 0.1 uM [Nanosyn]

>  <BAO Format ID>  (629) 
BAO_0000357

>  <BAO Label>  (629) 
single protein format

>  <Assay Organism>  (629) 
None

>  <Target ChEMBL ID>  (629) 
CHEMBL4247

>  <Target Name>  (629) 
ALK tyrosine kinase receptor

>  <Target Organism>  (629) 
Homo sapiens

>  <Target Type>  (629) 
SINGLE PROTEIN

>  <Document ChEMBL ID>  (629) 
CHEMBL1961873

>  <Source Description>  (629) 
GSK Published Kinase Inhibitor Set

>  <Document Journal>  (629) 
nan

>  <Document Year>  (629) 
nan

>  <Active>  (629) 
0.0

>  <bits>  (629) 
<rdkit.DataStructs.cDataStructs.ExplicitBitVect object at 0x000002422F16FAE0>

>  <Group>  (629) 
G2

$$$$

     RDKit          2D

 30 33  0  0  0  0  0  0  0  0999 V2000
   -3.7548   -2.1855    0.0000 C   0  0  0  0  0  0  0  0  0  0  0  0
   -2.6401   -3.1891    0.0000 C   0  0  0  0  0  0  0  0  0  0  0  0
   -1.2135   -2.7256    0.0000 N   0  0  0  0  0  0  0  0  0  0  0  0
   -0.0000   -3.6073    0.0000 C   0  0  0  0  0  0  0  0  0  0  0  0
   -0.0000   -5.1073    0.0000 C   0  0  0  0  0  0  0  0  0  0  0  0
    1.2135   -5.9890    0.0000 N   0  0  0  0  0  0  0  0  0  0  0  0
    0.7500   -7.4156    0.0000 O   0  0  0  0  0  0  0  0  0  0  0  0
   -0.7500   -7.4156    0.0000 N   0  0  0  0  0  0  0  0  0  0  0  0
   -1.2135   -5.9890    0.0000 C   0  0  0  0  0  0  0  0  0  0  0  0
   -2.6401   -5.5255    0.0000 N   0  0  0  0  0  0  0  0  0  0  0  0
    1.2135   -2.7256    0.0000 N   0  0  0  0  0  0  0  0  0  0  0  0
    0.7500   -1.2990    0.0000 C   0  0  0  0  0  0  0  0  0  0  0  0
    1.5000    0.0000    0.0000 C   0  0  0  0  0  0  0  0  0  0  0  0
    3.0000    0.0000    0.0000 C   0  0  0  0  0  0  0  0  0  0  0  0
    4.5000    0.0000    0.0000 C   0  0  0  0  0  0  0  0  0  0  0  0
    6.0000    0.0000    0.0000 C   0  0  0  0  0  0  0  0  0  0  0  0
    6.0000   -1.5000    0.0000 C   0  0  0  0  0  0  0  0  0  0  0  0
    6.0000    1.5000    0.0000 C   0  0  0  0  0  0  0  0  0  0  0  0
    7.5000    0.0000    0.0000 O   0  0  0  0  0  0  0  0  0  0  0  0
    0.7500    1.2990    0.0000 N   0  0  0  0  0  0  0  0  0  0  0  0
   -0.7500    1.2990    0.0000 C   0  0  0  0  0  0  0  0  0  0  0  0
   -1.5000    0.0000    0.0000 C   0  0  0  0  0  0  0  0  0  0  0  0
   -3.0000    0.0000    0.0000 O   0  0  0  0  0  0  0  0  0  0  0  0
   -3.7500    1.2990    0.0000 C   0  0  0  0  0  0  0  0  0  0  0  0
   -3.0000    2.5981    0.0000 C   0  0  0  0  0  0  0  0  0  0  0  0
   -3.7500    3.8971    0.0000 C   0  0  0  0  0  0  0  0  0  0  0  0
   -5.2500    3.8971    0.0000 N   0  0  0  0  0  0  0  0  0  0  0  0
   -6.0000    2.5981    0.0000 C   0  0  0  0  0  0  0  0  0  0  0  0
   -5.2500    1.2990    0.0000 C   0  0  0  0  0  0  0  0  0  0  0  0
   -0.7500   -1.2990    0.0000 C   0  0  0  0  0  0  0  0  0  0  0  0
  1  2  1  0
  2  3  1  0
  3  4  1  0
  4  5  1  0
  5  6  2  0
  6  7  1  0
  7  8  1  0
  8  9  2  0
  9 10  1  0
  4 11  2  0
 11 12  1  0
 12 13  2  0
 13 14  1  0
 14 15  3  0
 15 16  1  0
 16 17  1  0
 16 18  1  0
 16 19  1  0
 13 20  1  0
 20 21  2  0
 21 22  1  0
 22 23  1  0
 23 24  1  0
 24 25  1  0
 25 26  1  0
 26 27  1  0
 27 28  1  0
 28 29  1  0
 22 30  2  0
 30  3  1  0
  9  5  1  0
 30 12  1  0
 29 24  1  0
M  END
>  <Compound_ID>  (630) 
CHEMBL1794066

>  <Molecule Name>  (630) 
GSK-619487A

>  <Molecular Weight>  (630) 
525.49

>  <AlogP>  (630) 
1.34

>  <Smiles>  (630) 
CCn1c(-c2nonc2N)nc2c(C#CC(C)(C)O)ncc(OC3CCNCC3)c21

>  <Standard Type>  (630) 
Inhibition

>  <Standard Relation>  (630) 
'='

>  <Standard Units>  (630) 
%

>  <Standard Value>  (630) 
4.92

>  <Assay ChEMBL ID>  (630) 
CHEMBL1962241

>  <Assay Description>  (630) 
GSK_PKIS: ALK mean inhibition at 1 uM [Nanosyn]

>  <BAO Format ID>  (630) 
BAO_0000357

>  <BAO Label>  (630) 
single protein format

>  <Assay Organism>  (630) 
None

>  <Target ChEMBL ID>  (630) 
CHEMBL4247

>  <Target Name>  (630) 
ALK tyrosine kinase receptor

>  <Target Organism>  (630) 
Homo sapiens

>  <Target Type>  (630) 
SINGLE PROTEIN

>  <Document ChEMBL ID>  (630) 
CHEMBL1961873

>  <Source Description>  (630) 
GSK Published Kinase Inhibitor Set

>  <Document Journal>  (630) 
nan

>  <Document Year>  (630) 
nan

>  <Active>  (630) 
0.0

>  <bits>  (630) 
<rdkit.DataStructs.cDataStructs.ExplicitBitVect object at 0x000002422F16F6F0>

>  <Group>  (630) 
G2

$$$$

     RDKit          2D

 23 25  0  0  0  0  0  0  0  0999 V2000
   -3.7548   -2.1855    0.0000 C   0  0  0  0  0  0  0  0  0  0  0  0
   -2.6401   -3.1891    0.0000 C   0  0  0  0  0  0  0  0  0  0  0  0
   -2.9520   -4.6564    0.0000 N   0  0  0  0  0  0  0  0  0  0  0  0
   -4.3786   -5.1199    0.0000 C   0  0  0  0  0  0  0  0  0  0  0  0
   -5.4933   -4.1162    0.0000 C   0  0  0  0  0  0  0  0  0  0  0  0
   -6.9199   -4.5797    0.0000 C   0  0  0  0  0  0  0  0  0  0  0  0
   -7.2317   -6.0469    0.0000 C   0  0  0  0  0  0  0  0  0  0  0  0
   -8.6583   -6.5105    0.0000 S   0  0  0  0  0  0  0  0  0  0  0  0
  -10.0849   -6.9740    0.0000 N   0  0  0  0  0  0  0  0  0  0  0  0
   -9.1218   -5.0839    0.0000 O   0  0  0  0  0  0  0  0  0  0  0  0
   -8.1948   -7.9371    0.0000 O   0  0  0  0  0  0  0  0  0  0  0  0
   -6.1170   -7.0506    0.0000 C   0  0  0  0  0  0  0  0  0  0  0  0
   -4.6904   -6.5871    0.0000 C   0  0  0  0  0  0  0  0  0  0  0  0
   -1.2135   -2.7256    0.0000 C   0  0  0  0  0  0  0  0  0  0  0  0
   -0.0000   -3.6073    0.0000 C   0  0  0  0  0  0  0  0  0  0  0  0
    0.0000   -5.1073    0.0000 O   0  0  0  0  0  0  0  0  0  0  0  0
    1.2135   -2.7256    0.0000 N   0  0  0  0  0  0  0  0  0  0  0  0
    0.7500   -1.2990    0.0000 C   0  0  0  0  0  0  0  0  0  0  0  0
    1.5000    0.0000    0.0000 C   0  0  0  0  0  0  0  0  0  0  0  0
    0.7500    1.2990    0.0000 C   0  0  0  0  0  0  0  0  0  0  0  0
   -0.7500    1.2990    0.0000 C   0  0  0  0  0  0  0  0  0  0  0  0
   -1.5000    0.0000    0.0000 C   0  0  0  0  0  0  0  0  0  0  0  0
   -0.7500   -1.2990    0.0000 C   0  0  0  0  0  0  0  0  0  0  0  0
  1  2  1  0
  2  3  1  0
  3  4  1  0
  4  5  2  0
  5  6  1  0
  6  7  2  0
  7  8  1  0
  8  9  1  0
  8 10  2  0
  8 11  2  0
  7 12  1  0
 12 13  2  0
  2 14  2  0
 14 15  1  0
 15 16  2  0
 15 17  1  0
 17 18  1  0
 18 19  2  0
 19 20  1  0
 20 21  2  0
 21 22  1  0
 22 23  2  0
 13  4  1  0
 23 14  1  0
 23 18  1  0
M  END
>  <Compound_ID>  (631) 
CHEMBL405042

>  <Molecule Name>  (631) 
GW335962X

>  <Molecular Weight>  (631) 
329.38

>  <AlogP>  (631) 
2.13

>  <Smiles>  (631) 
C/C(Nc1ccc(S(N)(=O)=O)cc1)=C1/C(=O)Nc2ccccc21

>  <Standard Type>  (631) 
Inhibition

>  <Standard Relation>  (631) 
'='

>  <Standard Units>  (631) 
%

>  <Standard Value>  (631) 
-1.33

>  <Assay ChEMBL ID>  (631) 
CHEMBL1962240

>  <Assay Description>  (631) 
GSK_PKIS: ALK mean inhibition at 0.1 uM [Nanosyn]

>  <BAO Format ID>  (631) 
BAO_0000357

>  <BAO Label>  (631) 
single protein format

>  <Assay Organism>  (631) 
None

>  <Target ChEMBL ID>  (631) 
CHEMBL4247

>  <Target Name>  (631) 
ALK tyrosine kinase receptor

>  <Target Organism>  (631) 
Homo sapiens

>  <Target Type>  (631) 
SINGLE PROTEIN

>  <Document ChEMBL ID>  (631) 
CHEMBL1961873

>  <Source Description>  (631) 
GSK Published Kinase Inhibitor Set

>  <Document Journal>  (631) 
nan

>  <Document Year>  (631) 
nan

>  <Active>  (631) 
0.0

>  <bits>  (631) 
<rdkit.DataStructs.cDataStructs.ExplicitBitVect object at 0x000002422F16E180>

>  <Group>  (631) 
G2

$$$$

     RDKit          2D

 30 34  0  0  0  0  0  0  0  0999 V2000
    3.7500   -1.2990    0.0000 C   0  0  0  0  0  0  0  0  0  0  0  0
    3.0000    0.0000    0.0000 N   0  0  0  0  0  0  0  0  0  0  0  0
    3.7500    1.2990    0.0000 C   0  0  0  0  0  0  0  0  0  0  0  0
    1.5000    0.0000    0.0000 C   0  0  0  0  0  0  0  0  0  0  0  0
    0.7500   -1.2990    0.0000 C   0  0  0  0  0  0  0  0  0  0  0  0
   -0.7500   -1.2990    0.0000 C   0  0  0  0  0  0  0  0  0  0  0  0
   -1.5000   -2.5981    0.0000 C   0  0  0  0  0  0  0  0  0  0  0  0
   -0.7500   -3.8971    0.0000 N   0  0  0  0  0  0  0  0  0  0  0  0
   -1.5000   -5.1962    0.0000 C   0  0  0  0  0  0  0  0  0  0  0  0
   -3.0000   -5.1962    0.0000 C   0  0  0  0  0  0  0  0  0  0  0  0
   -3.7500   -6.4952    0.0000 C   0  0  0  0  0  0  0  0  0  0  0  0
   -3.0000   -7.7942    0.0000 C   0  0  0  0  0  0  0  0  0  0  0  0
   -3.4635   -9.2208    0.0000 N   0  0  0  0  0  0  0  0  0  0  0  0
   -2.2500  -10.1025    0.0000 C   0  0  0  0  0  0  0  0  0  0  0  0
   -2.2500  -11.6025    0.0000 C   0  0  0  0  0  0  0  0  0  0  0  0
   -3.5490  -12.3525    0.0000 C   0  0  0  0  0  0  0  0  0  0  0  0
   -4.8481  -11.6025    0.0000 C   0  0  0  0  0  0  0  0  0  0  0  0
   -6.1471  -12.3525    0.0000 C   0  0  0  0  0  0  0  0  0  0  0  0
   -6.1471  -13.8525    0.0000 C   0  0  0  0  0  0  0  0  0  0  0  0
   -4.8481  -14.6025    0.0000 C   0  0  0  0  0  0  0  0  0  0  0  0
   -3.5490  -13.8525    0.0000 C   0  0  0  0  0  0  0  0  0  0  0  0
   -1.0365   -9.2208    0.0000 N   0  0  0  0  0  0  0  0  0  0  0  0
   -1.5000   -7.7942    0.0000 C   0  0  0  0  0  0  0  0  0  0  0  0
   -0.7500   -6.4952    0.0000 C   0  0  0  0  0  0  0  0  0  0  0  0
   -3.0000   -2.5981    0.0000 N   0  0  0  0  0  0  0  0  0  0  0  0
   -3.7500   -1.2990    0.0000 C   0  0  0  0  0  0  0  0  0  0  0  0
   -3.0000    0.0000    0.0000 N   0  0  0  0  0  0  0  0  0  0  0  0
   -1.5000    0.0000    0.0000 C   0  0  0  0  0  0  0  0  0  0  0  0
   -0.7500    1.2990    0.0000 C   0  0  0  0  0  0  0  0  0  0  0  0
    0.7500    1.2990    0.0000 N   0  0  0  0  0  0  0  0  0  0  0  0
  1  2  1  0
  2  3  1  0
  2  4  1  0
  4  5  2  0
  5  6  1  0
  6  7  2  0
  7  8  1  0
  8  9  1  0
  9 10  2  0
 10 11  1  0
 11 12  2  0
 12 13  1  0
 13 14  2  0
 14 15  1  0
 15 16  1  0
 16 17  2  0
 17 18  1  0
 18 19  2  0
 19 20  1  0
 20 21  2  0
 14 22  1  0
 22 23  1  0
 23 24  2  0
  7 25  1  0
 25 26  2  0
 26 27  1  0
 27 28  2  0
 28 29  1  0
 29 30  2  0
 30  4  1  0
 28  6  1  0
 24  9  1  0
 23 12  1  0
 21 16  1  0
M  END
>  <Compound_ID>  (632) 
CHEMBL531804

>  <Molecule Name>  (632) 
GW301888X

>  <Molecular Weight>  (632) 
395.47

>  <AlogP>  (632) 
4.3

>  <Smiles>  (632) 
CN(C)c1cc2c(Nc3ccc4nc(Cc5ccccc5)[nH]c4c3)ncnc2cn1

>  <Standard Type>  (632) 
Inhibition

>  <Standard Relation>  (632) 
'='

>  <Standard Units>  (632) 
%

>  <Standard Value>  (632) 
4.99

>  <Assay ChEMBL ID>  (632) 
CHEMBL1962240

>  <Assay Description>  (632) 
GSK_PKIS: ALK mean inhibition at 0.1 uM [Nanosyn]

>  <BAO Format ID>  (632) 
BAO_0000357

>  <BAO Label>  (632) 
single protein format

>  <Assay Organism>  (632) 
None

>  <Target ChEMBL ID>  (632) 
CHEMBL4247

>  <Target Name>  (632) 
ALK tyrosine kinase receptor

>  <Target Organism>  (632) 
Homo sapiens

>  <Target Type>  (632) 
SINGLE PROTEIN

>  <Document ChEMBL ID>  (632) 
CHEMBL1961873

>  <Source Description>  (632) 
GSK Published Kinase Inhibitor Set

>  <Document Journal>  (632) 
nan

>  <Document Year>  (632) 
nan

>  <Active>  (632) 
0.0

>  <bits>  (632) 
<rdkit.DataStructs.cDataStructs.ExplicitBitVect object at 0x000002422F16D930>

>  <Group>  (632) 
G2

$$$$

     RDKit          2D

 24 26  0  0  0  0  0  0  0  0999 V2000
    4.5000    0.0000    0.0000 N   0  0  0  0  0  0  0  0  0  0  0  0
    3.0000    0.0000    0.0000 S   0  0  0  0  0  0  0  0  0  0  0  0
    3.0000   -1.5000    0.0000 O   0  0  0  0  0  0  0  0  0  0  0  0
    3.0000    1.5000    0.0000 O   0  0  0  0  0  0  0  0  0  0  0  0
    1.5000    0.0000    0.0000 C   0  0  0  0  0  0  0  0  0  0  0  0
    0.7500   -1.2990    0.0000 C   0  0  0  0  0  0  0  0  0  0  0  0
   -0.7500   -1.2990    0.0000 C   0  0  0  0  0  0  0  0  0  0  0  0
   -1.5000    0.0000    0.0000 C   0  0  0  0  0  0  0  0  0  0  0  0
   -3.0000    0.0000    0.0000 N   0  0  0  0  0  0  0  0  0  0  0  0
   -3.7500    1.2990    0.0000 C   0  0  0  0  0  0  0  0  0  0  0  0
   -5.2418    1.4558    0.0000 C   0  0  0  0  0  0  0  0  0  0  0  0
   -5.5537    2.9231    0.0000 C   0  0  0  0  0  0  0  0  0  0  0  0
   -6.9240    3.5332    0.0000 C   0  0  0  0  0  0  0  0  0  0  0  0
   -7.0808    5.0249    0.0000 C   0  0  0  0  0  0  0  0  0  0  0  0
   -8.4511    5.6350    0.0000 C   0  0  0  0  0  0  0  0  0  0  0  0
   -9.6646    4.7534    0.0000 C   0  0  0  0  0  0  0  0  0  0  0  0
  -11.0349    5.3635    0.0000 O   0  0  0  0  0  0  0  0  0  0  0  0
   -9.5078    3.2616    0.0000 C   0  0  0  0  0  0  0  0  0  0  0  0
  -10.7213    2.3799    0.0000 F   0  0  0  0  0  0  0  0  0  0  0  0
   -8.1375    2.6515    0.0000 C   0  0  0  0  0  0  0  0  0  0  0  0
   -4.2546    3.6731    0.0000 N   0  0  0  0  0  0  0  0  0  0  0  0
   -3.1399    2.6694    0.0000 N   0  0  0  0  0  0  0  0  0  0  0  0
   -0.7500    1.2990    0.0000 C   0  0  0  0  0  0  0  0  0  0  0  0
    0.7500    1.2990    0.0000 C   0  0  0  0  0  0  0  0  0  0  0  0
  1  2  1  0
  2  3  2  0
  2  4  2  0
  2  5  1  0
  5  6  2  0
  6  7  1  0
  7  8  2  0
  8  9  1  0
  9 10  1  0
 10 11  2  0
 11 12  1  0
 12 13  1  0
 13 14  2  0
 14 15  1  0
 15 16  2  0
 16 17  1  0
 16 18  1  0
 18 19  1  0
 18 20  2  0
 12 21  2  0
 21 22  1  0
  8 23  1  0
 23 24  2  0
 24  5  1  0
 22 10  1  0
 20 13  1  0
M  END
>  <Compound_ID>  (633) 
CHEMBL103115

>  <Molecule Name>  (633) 
GW831091X

>  <Molecular Weight>  (633) 
348.36

>  <AlogP>  (633) 
2.31

>  <Smiles>  (633) 
NS(=O)(=O)c1ccc(Nc2cc(-c3ccc(O)c(F)c3)n[nH]2)cc1

>  <Standard Type>  (633) 
Inhibition

>  <Standard Relation>  (633) 
'='

>  <Standard Units>  (633) 
%

>  <Standard Value>  (633) 
8.38

>  <Assay ChEMBL ID>  (633) 
CHEMBL1962241

>  <Assay Description>  (633) 
GSK_PKIS: ALK mean inhibition at 1 uM [Nanosyn]

>  <BAO Format ID>  (633) 
BAO_0000357

>  <BAO Label>  (633) 
single protein format

>  <Assay Organism>  (633) 
None

>  <Target ChEMBL ID>  (633) 
CHEMBL4247

>  <Target Name>  (633) 
ALK tyrosine kinase receptor

>  <Target Organism>  (633) 
Homo sapiens

>  <Target Type>  (633) 
SINGLE PROTEIN

>  <Document ChEMBL ID>  (633) 
CHEMBL1961873

>  <Source Description>  (633) 
GSK Published Kinase Inhibitor Set

>  <Document Journal>  (633) 
nan

>  <Document Year>  (633) 
nan

>  <Active>  (633) 
0.0

>  <bits>  (633) 
<rdkit.DataStructs.cDataStructs.ExplicitBitVect object at 0x000002422F16E880>

>  <Group>  (633) 
G2

$$$$

     RDKit          2D

 39 42  0  0  0  0  0  0  0  0999 V2000
   -1.2990   -7.3573    0.0000 C   0  0  0  0  0  0  0  0  0  0  0  0
   -1.2990   -5.8573    0.0000 N   0  0  0  0  0  0  0  0  0  0  0  0
   -2.5981   -5.1073    0.0000 C   0  0  0  0  0  0  0  0  0  0  0  0
   -0.0000   -5.1073    0.0000 C   0  0  0  0  0  0  0  0  0  0  0  0
    1.2990   -5.8573    0.0000 O   0  0  0  0  0  0  0  0  0  0  0  0
   -0.0000   -3.6073    0.0000 C   0  0  0  0  0  0  0  0  0  0  0  0
    1.2135   -2.7256    0.0000 C   0  0  0  0  0  0  0  0  0  0  0  0
    0.7500   -1.2990    0.0000 C   0  0  0  0  0  0  0  0  0  0  0  0
    1.5000    0.0000    0.0000 C   0  0  0  0  0  0  0  0  0  0  0  0
    0.7500    1.2990    0.0000 N   0  0  0  0  0  0  0  0  0  0  0  0
   -0.7500    1.2990    0.0000 C   0  0  0  0  0  0  0  0  0  0  0  0
   -1.5000    2.5981    0.0000 N   0  0  0  0  0  0  0  0  0  0  0  0
   -0.7500    3.8971    0.0000 C   0  0  0  0  0  0  0  0  0  0  0  0
    0.7500    3.8971    0.0000 C   0  0  0  0  0  0  0  0  0  0  0  0
    1.5000    5.1962    0.0000 C   0  0  0  0  0  0  0  0  0  0  0  0
    0.7500    6.4952    0.0000 C   0  0  0  0  0  0  0  0  0  0  0  0
    1.5000    7.7942    0.0000 N   0  0  0  0  0  0  0  0  0  0  0  0
    3.0000    7.7942    0.0000 C   0  0  0  0  0  0  0  0  0  0  0  0
    3.7500    6.4952    0.0000 O   0  0  0  0  0  0  0  0  0  0  0  0
    3.7500    9.0933    0.0000 C   0  0  0  0  0  0  0  0  0  0  0  0
    5.2500    9.0933    0.0000 C   0  0  0  0  0  0  0  0  0  0  0  0
    6.0000   10.3923    0.0000 C   0  0  0  0  0  0  0  0  0  0  0  0
    7.5000   10.3923    0.0000 C   0  0  0  0  0  0  0  0  0  0  0  0
    8.2500   11.6913    0.0000 C   0  0  0  0  0  0  0  0  0  0  0  0
    9.7500   11.6913    0.0000 C   0  0  0  0  0  0  0  0  0  0  0  0
   10.5000   12.9904    0.0000 C   0  0  0  0  0  0  0  0  0  0  0  0
   12.0000   12.9904    0.0000 N   0  0  0  0  0  0  0  0  0  0  0  0
   12.7500   14.2894    0.0000 C   0  0  0  0  0  0  0  0  0  0  0  0
   13.5000   15.5885    0.0000 S   0  0  0  0  0  0  0  0  0  0  0  0
   -0.7500    6.4952    0.0000 C   0  0  0  0  0  0  0  0  0  0  0  0
   -1.5000    5.1962    0.0000 C   0  0  0  0  0  0  0  0  0  0  0  0
   -1.5000    0.0000    0.0000 N   0  0  0  0  0  0  0  0  0  0  0  0
   -0.7500   -1.2990    0.0000 C   0  0  0  0  0  0  0  0  0  0  0  0
   -1.2135   -2.7256    0.0000 N   0  0  0  0  0  0  0  0  0  0  0  0
   -2.6401   -3.1891    0.0000 C   0  0  0  0  0  0  0  0  0  0  0  0
   -3.1036   -4.6157    0.0000 C   0  0  0  0  0  0  0  0  0  0  0  0
   -4.6036   -4.6157    0.0000 C   0  0  0  0  0  0  0  0  0  0  0  0
   -5.0672   -3.1891    0.0000 C   0  0  0  0  0  0  0  0  0  0  0  0
   -3.8536   -2.3075    0.0000 C   0  0  0  0  0  0  0  0  0  0  0  0
  1  2  1  0
  2  3  1  0
  2  4  1  0
  4  5  2  0
  4  6  1  0
  6  7  2  0
  7  8  1  0
  8  9  2  0
  9 10  1  0
 10 11  2  0
 11 12  1  0
 12 13  1  0
 13 14  2  0
 14 15  1  0
 15 16  2  0
 16 17  1  0
 17 18  1  0
 18 19  2  0
 18 20  1  0
 20 21  1  0
 21 22  1  0
 22 23  1  0
 23 24  1  0
 24 25  1  0
 25 26  1  0
 26 27  1  0
 27 28  2  0
 28 29  2  0
 16 30  1  0
 30 31  2  0
 11 32  1  0
 32 33  2  0
 33 34  1  0
 34 35  1  0
 35 36  1  0
 36 37  1  0
 37 38  1  0
 38 39  1  0
 34  6  1  0
 39 35  1  0
 33  8  1  0
 31 13  1  0
M  END
>  <Compound_ID>  (634) 
CHEMBL4548580

>  <Molecule Name>  (634) 
nan

>  <Molecular Weight>  (634) 
547.73

>  <AlogP>  (634) 
6.37

>  <Smiles>  (634) 
CN(C)C(=O)c1cc2cnc(Nc3ccc(NC(=O)CCCCCCCN=C=S)cc3)nc2n1C1CCCC1

>  <Standard Type>  (634) 
Inhibition

>  <Standard Relation>  (634) 
'='

>  <Standard Units>  (634) 
%

>  <Standard Value>  (634) 
-3.0

>  <Assay ChEMBL ID>  (634) 
CHEMBL4377624

>  <Assay Description>  (634) 
Inhibition of recombinant human ALK (1058 to end residues) at 1 uM using KKKSPGEYVNIEF as substrate measured after 40 mins in presence of [gamma33P]ATP by scintillation counting method relative to control

>  <BAO Format ID>  (634) 
BAO_0000357

>  <BAO Label>  (634) 
single protein format

>  <Assay Organism>  (634) 
Homo sapiens

>  <Target ChEMBL ID>  (634) 
CHEMBL4247

>  <Target Name>  (634) 
ALK tyrosine kinase receptor

>  <Target Organism>  (634) 
Homo sapiens

>  <Target Type>  (634) 
SINGLE PROTEIN

>  <Document ChEMBL ID>  (634) 
CHEMBL4376814

>  <Source Description>  (634) 
Scientific Literature

>  <Document Journal>  (634) 
Eur J Med Chem

>  <Document Year>  (634) 
2019.0

>  <Active>  (634) 
0.0

>  <bits>  (634) 
<rdkit.DataStructs.cDataStructs.ExplicitBitVect object at 0x000002422F16E500>

>  <Group>  (634) 
G2

$$$$

     RDKit          2D

 18 20  0  0  0  0  0  0  0  0999 V2000
   -8.0346   -3.5760    0.0000 C   0  0  0  0  0  0  0  0  0  0  0  0
   -6.9199   -4.5797    0.0000 O   0  0  0  0  0  0  0  0  0  0  0  0
   -5.4933   -4.1162    0.0000 C   0  0  0  0  0  0  0  0  0  0  0  0
   -5.1814   -2.6490    0.0000 C   0  0  0  0  0  0  0  0  0  0  0  0
   -3.7548   -2.1855    0.0000 C   0  0  0  0  0  0  0  0  0  0  0  0
   -2.6401   -3.1891    0.0000 C   0  0  0  0  0  0  0  0  0  0  0  0
   -1.2135   -2.7256    0.0000 C   0  0  0  0  0  0  0  0  0  0  0  0
   -0.0000   -3.6073    0.0000 C   0  0  0  0  0  0  0  0  0  0  0  0
    1.2135   -2.7256    0.0000 O   0  0  0  0  0  0  0  0  0  0  0  0
    0.7500   -1.2990    0.0000 C   0  0  0  0  0  0  0  0  0  0  0  0
    1.5000    0.0000    0.0000 N   0  0  0  0  0  0  0  0  0  0  0  0
    0.7500    1.2990    0.0000 C   0  0  0  0  0  0  0  0  0  0  0  0
   -0.7500    1.2990    0.0000 N   0  0  0  0  0  0  0  0  0  0  0  0
   -1.5000    0.0000    0.0000 C   0  0  0  0  0  0  0  0  0  0  0  0
   -3.0000    0.0000    0.0000 N   0  0  0  0  0  0  0  0  0  0  0  0
   -0.7500   -1.2990    0.0000 C   0  0  0  0  0  0  0  0  0  0  0  0
   -2.9520   -4.6564    0.0000 C   0  0  0  0  0  0  0  0  0  0  0  0
   -4.3786   -5.1199    0.0000 C   0  0  0  0  0  0  0  0  0  0  0  0
  1  2  1  0
  2  3  1  0
  3  4  2  0
  4  5  1  0
  5  6  2  0
  6  7  1  0
  7  8  2  0
  8  9  1  0
  9 10  1  0
 10 11  2  0
 11 12  1  0
 12 13  2  0
 13 14  1  0
 14 15  1  0
 14 16  2  0
  6 17  1  0
 17 18  2  0
 18  3  1  0
 16  7  1  0
 16 10  1  0
M  END
>  <Compound_ID>  (635) 
CHEMBL196022

>  <Molecule Name>  (635) 
GW642125X

>  <Molecular Weight>  (635) 
241.25

>  <AlogP>  (635) 
2.48

>  <Smiles>  (635) 
COc1ccc(-c2coc3ncnc(N)c23)cc1

>  <Standard Type>  (635) 
Inhibition

>  <Standard Relation>  (635) 
'='

>  <Standard Units>  (635) 
%

>  <Standard Value>  (635) 
4.4

>  <Assay ChEMBL ID>  (635) 
CHEMBL1962240

>  <Assay Description>  (635) 
GSK_PKIS: ALK mean inhibition at 0.1 uM [Nanosyn]

>  <BAO Format ID>  (635) 
BAO_0000357

>  <BAO Label>  (635) 
single protein format

>  <Assay Organism>  (635) 
None

>  <Target ChEMBL ID>  (635) 
CHEMBL4247

>  <Target Name>  (635) 
ALK tyrosine kinase receptor

>  <Target Organism>  (635) 
Homo sapiens

>  <Target Type>  (635) 
SINGLE PROTEIN

>  <Document ChEMBL ID>  (635) 
CHEMBL1961873

>  <Source Description>  (635) 
GSK Published Kinase Inhibitor Set

>  <Document Journal>  (635) 
nan

>  <Document Year>  (635) 
nan

>  <Active>  (635) 
0.0

>  <bits>  (635) 
<rdkit.DataStructs.cDataStructs.ExplicitBitVect object at 0x000002422F16FED0>

>  <Group>  (635) 
G2

$$$$

     RDKit          2D

 26 28  0  0  0  0  0  0  0  0999 V2000
   -1.0896  -10.5178    0.0000 C   0  0  0  0  0  0  0  0  0  0  0  0
    0.4022  -10.3610    0.0000 C   0  0  0  0  0  0  0  0  0  0  0  0
    1.8940  -10.2042    0.0000 C   0  0  0  0  0  0  0  0  0  0  0  0
    0.5590  -11.8528    0.0000 C   0  0  0  0  0  0  0  0  0  0  0  0
    0.2454   -8.8692    0.0000 C   0  0  0  0  0  0  0  0  0  0  0  0
    1.3601   -7.8655    0.0000 C   0  0  0  0  0  0  0  0  0  0  0  0
    0.7500   -6.4952    0.0000 C   0  0  0  0  0  0  0  0  0  0  0  0
    1.5000   -5.1962    0.0000 N   0  0  0  0  0  0  0  0  0  0  0  0
    0.7500   -3.8971    0.0000 C   0  0  0  0  0  0  0  0  0  0  0  0
   -0.7500   -3.8971    0.0000 O   0  0  0  0  0  0  0  0  0  0  0  0
    1.5000   -2.5981    0.0000 N   0  0  0  0  0  0  0  0  0  0  0  0
    0.7500   -1.2990    0.0000 C   0  0  0  0  0  0  0  0  0  0  0  0
    1.5000    0.0000    0.0000 C   0  0  0  0  0  0  0  0  0  0  0  0
    0.7500    1.2990    0.0000 C   0  0  0  0  0  0  0  0  0  0  0  0
   -0.7500    1.2990    0.0000 C   0  0  0  0  0  0  0  0  0  0  0  0
   -1.5000    2.5981    0.0000 O   0  0  0  0  0  0  0  0  0  0  0  0
   -0.7500    3.8971    0.0000 C   0  0  0  0  0  0  0  0  0  0  0  0
    0.7500    3.8971    0.0000 C   0  0  0  0  0  0  0  0  0  0  0  0
    1.5000    5.1962    0.0000 C   0  0  0  0  0  0  0  0  0  0  0  0
    0.7500    6.4952    0.0000 N   0  0  0  0  0  0  0  0  0  0  0  0
   -0.7500    6.4952    0.0000 C   0  0  0  0  0  0  0  0  0  0  0  0
   -1.5000    5.1962    0.0000 C   0  0  0  0  0  0  0  0  0  0  0  0
   -1.5000    0.0000    0.0000 C   0  0  0  0  0  0  0  0  0  0  0  0
   -0.7500   -1.2990    0.0000 C   0  0  0  0  0  0  0  0  0  0  0  0
   -0.7418   -6.6520    0.0000 N   0  0  0  0  0  0  0  0  0  0  0  0
   -1.0537   -8.1192    0.0000 O   0  0  0  0  0  0  0  0  0  0  0  0
  1  2  1  0
  2  3  1  0
  2  4  1  0
  2  5  1  0
  5  6  2  0
  6  7  1  0
  7  8  1  0
  8  9  1  0
  9 10  2  0
  9 11  1  0
 11 12  1  0
 12 13  2  0
 13 14  1  0
 14 15  2  0
 15 16  1  0
 16 17  1  0
 17 18  2  0
 18 19  1  0
 19 20  2  0
 20 21  1  0
 21 22  2  0
 15 23  1  0
 23 24  2  0
  7 25  2  0
 25 26  1  0
 26  5  1  0
 24 12  1  0
 22 17  1  0
M  END
>  <Compound_ID>  (636) 
CHEMBL166031

>  <Molecule Name>  (636) 
nan

>  <Molecular Weight>  (636) 
352.39

>  <AlogP>  (636) 
4.8

>  <Smiles>  (636) 
CC(C)(C)c1cc(NC(=O)Nc2ccc(Oc3ccncc3)cc2)no1

>  <Standard Type>  (636) 
Inhibition

>  <Standard Relation>  (636) 
'='

>  <Standard Units>  (636) 
%

>  <Standard Value>  (636) 
17.45

>  <Assay ChEMBL ID>  (636) 
CHEMBL3631718

>  <Assay Description>  (636) 
Inhibition of ALK (unknown origin) at 10 uM after 120 mins P33 radiolabeled kinase activity assay

>  <BAO Format ID>  (636) 
BAO_0000357

>  <BAO Label>  (636) 
single protein format

>  <Assay Organism>  (636) 
Homo sapiens

>  <Target ChEMBL ID>  (636) 
CHEMBL4247

>  <Target Name>  (636) 
ALK tyrosine kinase receptor

>  <Target Organism>  (636) 
Homo sapiens

>  <Target Type>  (636) 
SINGLE PROTEIN

>  <Document ChEMBL ID>  (636) 
CHEMBL3627608

>  <Source Description>  (636) 
Scientific Literature

>  <Document Journal>  (636) 
Bioorg Med Chem

>  <Document Year>  (636) 
2015.0

>  <Active>  (636) 
0.0

>  <bits>  (636) 
<rdkit.DataStructs.cDataStructs.ExplicitBitVect object at 0x000002422F16D540>

>  <Group>  (636) 
G2

$$$$

     RDKit          2D

 26 29  0  0  0  0  0  0  0  0999 V2000
   -0.0000   -5.1073    0.0000 O   0  0  0  0  0  0  0  0  0  0  0  0
   -0.0000   -3.6073    0.0000 C   0  0  0  0  0  0  0  0  0  0  0  0
    1.2135   -2.7256    0.0000 N   0  0  0  0  0  0  0  0  0  0  0  0
    0.7500   -1.2990    0.0000 C   0  0  0  0  0  0  0  0  0  0  0  0
    1.5000    0.0000    0.0000 C   0  0  0  0  0  0  0  0  0  0  0  0
    0.7500    1.2990    0.0000 C   0  0  0  0  0  0  0  0  0  0  0  0
   -0.7500    1.2990    0.0000 C   0  0  0  0  0  0  0  0  0  0  0  0
   -1.5000    2.5981    0.0000 C   0  0  0  0  0  0  0  0  0  0  0  0
   -0.7500    3.8971    0.0000 C   0  0  0  0  0  0  0  0  0  0  0  0
   -1.5000    5.1962    0.0000 C   0  0  0  0  0  0  0  0  0  0  0  0
   -3.0000    5.1962    0.0000 C   0  0  0  0  0  0  0  0  0  0  0  0
   -3.7500    3.8971    0.0000 N   0  0  0  0  0  0  0  0  0  0  0  0
   -3.0000    2.5981    0.0000 C   0  0  0  0  0  0  0  0  0  0  0  0
   -1.5000    0.0000    0.0000 C   0  0  0  0  0  0  0  0  0  0  0  0
   -0.7500   -1.2990    0.0000 C   0  0  0  0  0  0  0  0  0  0  0  0
   -1.2135   -2.7256    0.0000 C   0  0  0  0  0  0  0  0  0  0  0  0
   -2.6401   -3.1891    0.0000 C   0  0  0  0  0  0  0  0  0  0  0  0
   -2.9520   -4.6564    0.0000 C   0  0  0  0  0  0  0  0  0  0  0  0
   -4.3786   -5.1199    0.0000 C   0  0  0  0  0  0  0  0  0  0  0  0
   -4.6904   -6.5871    0.0000 C   0  0  0  0  0  0  0  0  0  0  0  0
   -6.1170   -7.0506    0.0000 Br  0  0  0  0  0  0  0  0  0  0  0  0
   -3.5757   -7.5908    0.0000 C   0  0  0  0  0  0  0  0  0  0  0  0
   -3.8876   -9.0580    0.0000 O   0  0  0  0  0  0  0  0  0  0  0  0
   -2.1491   -7.1273    0.0000 C   0  0  0  0  0  0  0  0  0  0  0  0
   -1.0344   -8.1310    0.0000 Br  0  0  0  0  0  0  0  0  0  0  0  0
   -1.8373   -5.6601    0.0000 C   0  0  0  0  0  0  0  0  0  0  0  0
  1  2  2  0
  2  3  1  0
  3  4  1  0
  4  5  2  0
  5  6  1  0
  6  7  2  0
  7  8  1  0
  8  9  2  0
  9 10  1  0
 10 11  2  0
 11 12  1  0
 12 13  2  0
  7 14  1  0
 14 15  2  0
 15 16  1  0
 16 17  2  3
 17 18  1  0
 18 19  2  0
 19 20  1  0
 20 21  1  0
 20 22  2  0
 22 23  1  0
 22 24  1  0
 24 25  1  0
 24 26  2  0
 16  2  1  0
 26 18  1  0
 15  4  1  0
 13  8  1  0
M  END
>  <Compound_ID>  (637) 
CHEMBL1794050

>  <Molecule Name>  (637) 
GW429374A

>  <Molecular Weight>  (637) 
508.6

>  <AlogP>  (637) 
5.47

>  <Smiles>  (637) 
O=C1Nc2ccc(-c3cccnc3)cc2C1=Cc1cc(Br)c(O)c(Br)c1

>  <Standard Type>  (637) 
Inhibition

>  <Standard Relation>  (637) 
'='

>  <Standard Units>  (637) 
%

>  <Standard Value>  (637) 
4.13

>  <Assay ChEMBL ID>  (637) 
CHEMBL1962240

>  <Assay Description>  (637) 
GSK_PKIS: ALK mean inhibition at 0.1 uM [Nanosyn]

>  <BAO Format ID>  (637) 
BAO_0000357

>  <BAO Label>  (637) 
single protein format

>  <Assay Organism>  (637) 
None

>  <Target ChEMBL ID>  (637) 
CHEMBL4247

>  <Target Name>  (637) 
ALK tyrosine kinase receptor

>  <Target Organism>  (637) 
Homo sapiens

>  <Target Type>  (637) 
SINGLE PROTEIN

>  <Document ChEMBL ID>  (637) 
CHEMBL1961873

>  <Source Description>  (637) 
GSK Published Kinase Inhibitor Set

>  <Document Journal>  (637) 
nan

>  <Document Year>  (637) 
nan

>  <Active>  (637) 
0.0

>  <bits>  (637) 
<rdkit.DataStructs.cDataStructs.ExplicitBitVect object at 0x000002422F16DEE0>

>  <Group>  (637) 
G2

$$$$

     RDKit          2D

 29 33  0  0  0  0  0  0  0  0999 V2000
    0.0000   -9.6073    0.0000 Cl  0  0  0  0  0  0  0  0  0  0  0  0
    0.0000   -8.1073    0.0000 C   0  0  0  0  0  0  0  0  0  0  0  0
   -1.2990   -7.3573    0.0000 C   0  0  0  0  0  0  0  0  0  0  0  0
   -1.2990   -5.8573    0.0000 C   0  0  0  0  0  0  0  0  0  0  0  0
   -0.0000   -5.1073    0.0000 C   0  0  0  0  0  0  0  0  0  0  0  0
   -0.0000   -3.6073    0.0000 C   0  0  0  0  0  0  0  0  0  0  0  0
    1.2135   -2.7256    0.0000 N   0  0  0  0  0  0  0  0  0  0  0  0
    0.7500   -1.2990    0.0000 N   0  0  0  0  0  0  0  0  0  0  0  0
    1.5000    0.0000    0.0000 N   0  0  0  0  0  0  0  0  0  0  0  0
    0.7500    1.2990    0.0000 C   0  0  0  0  0  0  0  0  0  0  0  0
   -0.7500    1.2990    0.0000 C   0  0  0  0  0  0  0  0  0  0  0  0
   -1.5000    0.0000    0.0000 C   0  0  0  0  0  0  0  0  0  0  0  0
   -0.7500   -1.2990    0.0000 C   0  0  0  0  0  0  0  0  0  0  0  0
   -1.2135   -2.7256    0.0000 C   0  0  0  0  0  0  0  0  0  0  0  0
   -2.6401   -3.1891    0.0000 C   0  0  0  0  0  0  0  0  0  0  0  0
   -3.7548   -2.1855    0.0000 C   0  0  0  0  0  0  0  0  0  0  0  0
   -5.1814   -2.6490    0.0000 C   0  0  0  0  0  0  0  0  0  0  0  0
   -5.4933   -4.1162    0.0000 N   0  0  0  0  0  0  0  0  0  0  0  0
   -4.3786   -5.1199    0.0000 C   0  0  0  0  0  0  0  0  0  0  0  0
   -4.6904   -6.5871    0.0000 N   0  0  0  0  0  0  0  0  0  0  0  0
   -6.1170   -7.0506    0.0000 C   0  0  0  0  0  0  0  0  0  0  0  0
   -7.2317   -6.0469    0.0000 C   0  0  0  0  0  0  0  0  0  0  0  0
   -8.6583   -6.5105    0.0000 C   0  0  0  0  0  0  0  0  0  0  0  0
   -8.9702   -7.9777    0.0000 C   0  0  0  0  0  0  0  0  0  0  0  0
   -7.8555   -8.9814    0.0000 C   0  0  0  0  0  0  0  0  0  0  0  0
   -6.4289   -8.5179    0.0000 C   0  0  0  0  0  0  0  0  0  0  0  0
   -2.9520   -4.6564    0.0000 N   0  0  0  0  0  0  0  0  0  0  0  0
    1.2990   -5.8573    0.0000 C   0  0  0  0  0  0  0  0  0  0  0  0
    1.2990   -7.3573    0.0000 C   0  0  0  0  0  0  0  0  0  0  0  0
  1  2  1  0
  2  3  2  0
  3  4  1  0
  4  5  2  0
  5  6  1  0
  6  7  2  0
  7  8  1  0
  8  9  1  0
  9 10  2  0
 10 11  1  0
 11 12  2  0
 12 13  1  0
 13 14  2  0
 14 15  1  0
 15 16  2  0
 16 17  1  0
 17 18  2  0
 18 19  1  0
 19 20  1  0
 20 21  1  0
 21 22  2  0
 22 23  1  0
 23 24  2  0
 24 25  1  0
 25 26  2  0
 19 27  2  0
  5 28  1  0
 28 29  2  0
 29  2  1  0
 14  6  1  0
 27 15  1  0
 13  8  1  0
 26 21  1  0
M  END
>  <Compound_ID>  (638) 
CHEMBL189148

>  <Molecule Name>  (638) 
GW829055X

>  <Molecular Weight>  (638) 
398.86

>  <AlogP>  (638) 
5.25

>  <Smiles>  (638) 
Clc1ccc(-c2nn3ncccc3c2-c2ccnc(Nc3ccccc3)n2)cc1

>  <Standard Type>  (638) 
Inhibition

>  <Standard Relation>  (638) 
'='

>  <Standard Units>  (638) 
%

>  <Standard Value>  (638) 
2.67

>  <Assay ChEMBL ID>  (638) 
CHEMBL1962241

>  <Assay Description>  (638) 
GSK_PKIS: ALK mean inhibition at 1 uM [Nanosyn]

>  <BAO Format ID>  (638) 
BAO_0000357

>  <BAO Label>  (638) 
single protein format

>  <Assay Organism>  (638) 
None

>  <Target ChEMBL ID>  (638) 
CHEMBL4247

>  <Target Name>  (638) 
ALK tyrosine kinase receptor

>  <Target Organism>  (638) 
Homo sapiens

>  <Target Type>  (638) 
SINGLE PROTEIN

>  <Document ChEMBL ID>  (638) 
CHEMBL1961873

>  <Source Description>  (638) 
GSK Published Kinase Inhibitor Set

>  <Document Journal>  (638) 
nan

>  <Document Year>  (638) 
nan

>  <Active>  (638) 
0.0

>  <bits>  (638) 
<rdkit.DataStructs.cDataStructs.ExplicitBitVect object at 0x000002422F16F8B0>

>  <Group>  (638) 
G2

$$$$

     RDKit          2D

 36 40  0  0  0  0  0  0  0  0999 V2000
   -3.7548   -2.1855    0.0000 C   0  0  0  0  0  0  0  0  0  0  0  0
   -2.6401   -3.1891    0.0000 C   0  0  0  0  0  0  0  0  0  0  0  0
   -1.2135   -2.7256    0.0000 N   0  0  0  0  0  0  0  0  0  0  0  0
   -0.0000   -3.6073    0.0000 C   0  0  0  0  0  0  0  0  0  0  0  0
   -0.0000   -5.1073    0.0000 C   0  0  0  0  0  0  0  0  0  0  0  0
    1.2135   -5.9890    0.0000 N   0  0  0  0  0  0  0  0  0  0  0  0
    0.7500   -7.4156    0.0000 O   0  0  0  0  0  0  0  0  0  0  0  0
   -0.7500   -7.4156    0.0000 N   0  0  0  0  0  0  0  0  0  0  0  0
   -1.2135   -5.9890    0.0000 C   0  0  0  0  0  0  0  0  0  0  0  0
   -2.6401   -5.5255    0.0000 N   0  0  0  0  0  0  0  0  0  0  0  0
    1.2135   -2.7256    0.0000 N   0  0  0  0  0  0  0  0  0  0  0  0
    0.7500   -1.2990    0.0000 C   0  0  0  0  0  0  0  0  0  0  0  0
    1.5000    0.0000    0.0000 C   0  0  0  0  0  0  0  0  0  0  0  0
    0.7500    1.2990    0.0000 N   0  0  0  0  0  0  0  0  0  0  0  0
   -0.7500    1.2990    0.0000 C   0  0  0  0  0  0  0  0  0  0  0  0
   -1.5000    2.5981    0.0000 O   0  0  0  0  0  0  0  0  0  0  0  0
   -0.7500    3.8971    0.0000 C   0  0  0  0  0  0  0  0  0  0  0  0
    0.7500    3.8971    0.0000 C   0  0  0  0  0  0  0  0  0  0  0  0
    1.5000    5.1962    0.0000 C   0  0  0  0  0  0  0  0  0  0  0  0
    0.7500    6.4952    0.0000 C   0  0  0  0  0  0  0  0  0  0  0  0
   -0.7500    6.4952    0.0000 C   0  0  0  0  0  0  0  0  0  0  0  0
   -1.5000    7.7942    0.0000 N   0  0  0  0  0  0  0  0  0  0  0  0
   -0.7500    9.0933    0.0000 C   0  0  0  0  0  0  0  0  0  0  0  0
    0.7500    9.0933    0.0000 O   0  0  0  0  0  0  0  0  0  0  0  0
   -1.5000   10.3923    0.0000 C   0  0  0  0  0  0  0  0  0  0  0  0
   -0.7500   11.6913    0.0000 C   0  0  0  0  0  0  0  0  0  0  0  0
   -1.5000   12.9904    0.0000 C   0  0  0  0  0  0  0  0  0  0  0  0
   -3.0000   12.9904    0.0000 C   0  0  0  0  0  0  0  0  0  0  0  0
   -3.7500   14.2894    0.0000 N   0  0  0  0  0  0  0  0  0  0  0  0
   -3.0000   15.5885    0.0000 C   0  0  0  0  0  0  0  0  0  0  0  0
   -5.2500   14.2894    0.0000 C   0  0  0  0  0  0  0  0  0  0  0  0
   -3.7500   11.6913    0.0000 C   0  0  0  0  0  0  0  0  0  0  0  0
   -3.0000   10.3923    0.0000 C   0  0  0  0  0  0  0  0  0  0  0  0
   -1.5000    5.1962    0.0000 C   0  0  0  0  0  0  0  0  0  0  0  0
   -1.5000    0.0000    0.0000 C   0  0  0  0  0  0  0  0  0  0  0  0
   -0.7500   -1.2990    0.0000 C   0  0  0  0  0  0  0  0  0  0  0  0
  1  2  1  0
  2  3  1  0
  3  4  1  0
  4  5  1  0
  5  6  2  0
  6  7  1  0
  7  8  1  0
  8  9  2  0
  9 10  1  0
  4 11  2  0
 11 12  1  0
 12 13  2  0
 13 14  1  0
 14 15  2  0
 15 16  1  0
 16 17  1  0
 17 18  2  0
 18 19  1  0
 19 20  2  0
 20 21  1  0
 21 22  1  0
 22 23  1  0
 23 24  2  0
 23 25  1  0
 25 26  2  0
 26 27  1  0
 27 28  2  0
 28 29  1  0
 29 30  1  0
 29 31  1  0
 28 32  1  0
 32 33  2  0
 21 34  2  0
 15 35  1  0
 35 36  2  0
 36  3  1  0
  9  5  1  0
 36 12  1  0
 34 17  1  0
 33 25  1  0
M  END
>  <Compound_ID>  (639) 
CHEMBL220465

>  <Molecule Name>  (639) 
GSK-248233A

>  <Molecular Weight>  (639) 
484.52

>  <AlogP>  (639) 
4.19

>  <Smiles>  (639) 
CCn1c(-c2nonc2N)nc2cnc(Oc3cccc(NC(=O)c4ccc(N(C)C)cc4)c3)cc21

>  <Standard Type>  (639) 
Inhibition

>  <Standard Relation>  (639) 
'='

>  <Standard Units>  (639) 
%

>  <Standard Value>  (639) 
1.96

>  <Assay ChEMBL ID>  (639) 
CHEMBL1962241

>  <Assay Description>  (639) 
GSK_PKIS: ALK mean inhibition at 1 uM [Nanosyn]

>  <BAO Format ID>  (639) 
BAO_0000357

>  <BAO Label>  (639) 
single protein format

>  <Assay Organism>  (639) 
None

>  <Target ChEMBL ID>  (639) 
CHEMBL4247

>  <Target Name>  (639) 
ALK tyrosine kinase receptor

>  <Target Organism>  (639) 
Homo sapiens

>  <Target Type>  (639) 
SINGLE PROTEIN

>  <Document ChEMBL ID>  (639) 
CHEMBL1961873

>  <Source Description>  (639) 
GSK Published Kinase Inhibitor Set

>  <Document Journal>  (639) 
nan

>  <Document Year>  (639) 
nan

>  <Active>  (639) 
0.0

>  <bits>  (639) 
<rdkit.DataStructs.cDataStructs.ExplicitBitVect object at 0x000002422F16EE30>

>  <Group>  (639) 
G2

$$$$

     RDKit          2D

 31 34  0  0  0  0  0  0  0  0999 V2000
   -0.7500   -6.4952    0.0000 C   0  0  0  0  0  0  0  0  0  0  0  0
    0.7500   -6.4952    0.0000 C   0  0  0  0  0  0  0  0  0  0  0  0
    1.5000   -5.1962    0.0000 C   0  0  0  0  0  0  0  0  0  0  0  0
    0.7500   -3.8971    0.0000 C   0  0  0  0  0  0  0  0  0  0  0  0
   -0.7500   -3.8971    0.0000 O   0  0  0  0  0  0  0  0  0  0  0  0
    1.5000   -2.5981    0.0000 N   0  0  0  0  0  0  0  0  0  0  0  0
    0.7500   -1.2990    0.0000 C   0  0  0  0  0  0  0  0  0  0  0  0
    1.5000    0.0000    0.0000 C   0  0  0  0  0  0  0  0  0  0  0  0
    0.7500    1.2990    0.0000 C   0  0  0  0  0  0  0  0  0  0  0  0
   -0.7500    1.2990    0.0000 C   0  0  0  0  0  0  0  0  0  0  0  0
   -1.7537    2.4138    0.0000 N   0  0  0  0  0  0  0  0  0  0  0  0
   -3.1240    1.8037    0.0000 N   0  0  0  0  0  0  0  0  0  0  0  0
   -2.9672    0.3119    0.0000 C   0  0  0  0  0  0  0  0  0  0  0  0
   -4.0819   -0.6918    0.0000 C   0  0  0  0  0  0  0  0  0  0  0  0
   -1.5000    0.0000    0.0000 C   0  0  0  0  0  0  0  0  0  0  0  0
   -0.7500   -1.2990    0.0000 C   0  0  0  0  0  0  0  0  0  0  0  0
    3.0000   -5.1962    0.0000 C   0  0  0  0  0  0  0  0  0  0  0  0
    3.7500   -3.8971    0.0000 C   0  0  0  0  0  0  0  0  0  0  0  0
    5.2500   -3.8971    0.0000 C   0  0  0  0  0  0  0  0  0  0  0  0
    6.0000   -2.5981    0.0000 C   0  0  0  0  0  0  0  0  0  0  0  0
    5.2500   -1.2990    0.0000 C   0  0  0  0  0  0  0  0  0  0  0  0
    6.0000   -0.0000    0.0000 C   0  0  0  0  0  0  0  0  0  0  0  0
    6.7500    1.2990    0.0000 F   0  0  0  0  0  0  0  0  0  0  0  0
    7.2990   -0.7500    0.0000 F   0  0  0  0  0  0  0  0  0  0  0  0
    4.7010    0.7500    0.0000 F   0  0  0  0  0  0  0  0  0  0  0  0
    3.7500   -1.2990    0.0000 C   0  0  0  0  0  0  0  0  0  0  0  0
    3.0000   -2.5981    0.0000 C   0  0  0  0  0  0  0  0  0  0  0  0
    3.7500   -6.4952    0.0000 C   0  0  0  0  0  0  0  0  0  0  0  0
    3.0000   -7.7942    0.0000 C   0  0  0  0  0  0  0  0  0  0  0  0
    3.7500   -9.0933    0.0000 O   0  0  0  0  0  0  0  0  0  0  0  0
    1.5000   -7.7942    0.0000 N   0  0  0  0  0  0  0  0  0  0  0  0
  1  2  1  0
  2  3  2  0
  3  4  1  0
  4  5  2  0
  4  6  1  0
  6  7  1  0
  7  8  2  0
  8  9  1  0
  9 10  2  0
 10 11  1  0
 11 12  1  0
 12 13  2  0
 13 14  1  0
 13 15  1  0
 15 16  2  0
  3 17  1  0
 17 18  1  0
 18 19  2  0
 19 20  1  0
 20 21  2  0
 21 22  1  0
 22 23  1  0
 22 24  1  0
 22 25  1  0
 21 26  1  0
 26 27  2  0
 17 28  1  0
 28 29  1  0
 29 30  2  0
 29 31  1  0
 31  2  1  0
 16  7  1  0
 27 18  1  0
 15 10  1  0
M  END
>  <Compound_ID>  (640) 
CHEMBL218720

>  <Molecule Name>  (640) 
GSK-466314A

>  <Molecular Weight>  (640) 
428.41

>  <AlogP>  (640) 
4.41

>  <Smiles>  (640) 
CC1=C(C(=O)Nc2ccc3[nH]nc(C)c3c2)C(c2ccc(C(F)(F)F)cc2)CC(=O)N1

>  <Standard Type>  (640) 
Inhibition

>  <Standard Relation>  (640) 
'='

>  <Standard Units>  (640) 
%

>  <Standard Value>  (640) 
6.8

>  <Assay ChEMBL ID>  (640) 
CHEMBL1962241

>  <Assay Description>  (640) 
GSK_PKIS: ALK mean inhibition at 1 uM [Nanosyn]

>  <BAO Format ID>  (640) 
BAO_0000357

>  <BAO Label>  (640) 
single protein format

>  <Assay Organism>  (640) 
None

>  <Target ChEMBL ID>  (640) 
CHEMBL4247

>  <Target Name>  (640) 
ALK tyrosine kinase receptor

>  <Target Organism>  (640) 
Homo sapiens

>  <Target Type>  (640) 
SINGLE PROTEIN

>  <Document ChEMBL ID>  (640) 
CHEMBL1961873

>  <Source Description>  (640) 
GSK Published Kinase Inhibitor Set

>  <Document Journal>  (640) 
nan

>  <Document Year>  (640) 
nan

>  <Active>  (640) 
0.0

>  <bits>  (640) 
<rdkit.DataStructs.cDataStructs.ExplicitBitVect object at 0x000002422F16ECE0>

>  <Group>  (640) 
G2

$$$$

     RDKit          2D

 29 32  0  0  0  0  0  0  0  0999 V2000
   -3.7548   -2.1855    0.0000 C   0  0  0  0  0  0  0  0  0  0  0  0
   -2.6401   -3.1891    0.0000 C   0  0  0  0  0  0  0  0  0  0  0  0
   -1.2135   -2.7256    0.0000 N   0  0  0  0  0  0  0  0  0  0  0  0
   -0.0000   -3.6073    0.0000 C   0  0  0  0  0  0  0  0  0  0  0  0
   -0.0000   -5.1073    0.0000 C   0  0  0  0  0  0  0  0  0  0  0  0
    1.2135   -5.9890    0.0000 N   0  0  0  0  0  0  0  0  0  0  0  0
    0.7500   -7.4156    0.0000 O   0  0  0  0  0  0  0  0  0  0  0  0
   -0.7500   -7.4156    0.0000 N   0  0  0  0  0  0  0  0  0  0  0  0
   -1.2135   -5.9890    0.0000 C   0  0  0  0  0  0  0  0  0  0  0  0
   -2.6401   -5.5255    0.0000 N   0  0  0  0  0  0  0  0  0  0  0  0
    1.2135   -2.7256    0.0000 N   0  0  0  0  0  0  0  0  0  0  0  0
    0.7500   -1.2990    0.0000 C   0  0  0  0  0  0  0  0  0  0  0  0
    1.5000    0.0000    0.0000 C   0  0  0  0  0  0  0  0  0  0  0  0
    3.0000    0.0000    0.0000 C   0  0  0  0  0  0  0  0  0  0  0  0
    4.5000    0.0000    0.0000 C   0  0  0  0  0  0  0  0  0  0  0  0
    6.0000    0.0000    0.0000 C   0  0  0  0  0  0  0  0  0  0  0  0
    6.0000   -1.5000    0.0000 C   0  0  0  0  0  0  0  0  0  0  0  0
    6.0000    1.5000    0.0000 C   0  0  0  0  0  0  0  0  0  0  0  0
    7.5000    0.0000    0.0000 O   0  0  0  0  0  0  0  0  0  0  0  0
    0.7500    1.2990    0.0000 N   0  0  0  0  0  0  0  0  0  0  0  0
   -0.7500    1.2990    0.0000 C   0  0  0  0  0  0  0  0  0  0  0  0
   -1.5000    2.5981    0.0000 C   0  0  0  0  0  0  0  0  0  0  0  0
   -0.7500    3.8971    0.0000 N   0  0  0  0  0  0  0  0  0  0  0  0
   -1.3601    5.2674    0.0000 C   0  0  0  0  0  0  0  0  0  0  0  0
   -0.2454    6.2711    0.0000 C   0  0  0  0  0  0  0  0  0  0  0  0
    1.0537    5.5211    0.0000 C   0  0  0  0  0  0  0  0  0  0  0  0
    0.7418    4.0539    0.0000 C   0  0  0  0  0  0  0  0  0  0  0  0
   -1.5000    0.0000    0.0000 C   0  0  0  0  0  0  0  0  0  0  0  0
   -0.7500   -1.2990    0.0000 C   0  0  0  0  0  0  0  0  0  0  0  0
  1  2  1  0
  2  3  1  0
  3  4  1  0
  4  5  1  0
  5  6  2  0
  6  7  1  0
  7  8  1  0
  8  9  2  0
  9 10  1  0
  4 11  2  0
 11 12  1  0
 12 13  2  0
 13 14  1  0
 14 15  3  0
 15 16  1  0
 16 17  1  0
 16 18  1  0
 16 19  1  0
 13 20  1  0
 20 21  2  0
 21 22  1  0
 22 23  1  0
 23 24  1  0
 24 25  1  0
 25 26  1  0
 26 27  1  0
 21 28  1  0
 28 29  2  0
 29  3  1  0
  9  5  1  0
 29 12  1  0
 27 23  1  0
M  END
>  <Compound_ID>  (641) 
CHEMBL1096290

>  <Molecule Name>  (641) 
GSK-1000163A

>  <Molecular Weight>  (641) 
395.47

>  <AlogP>  (641) 
1.8

>  <Smiles>  (641) 
CCn1c(-c2nonc2N)nc2c(C#CC(C)(C)O)nc(CN3CCCC3)cc21

>  <Standard Type>  (641) 
Inhibition

>  <Standard Relation>  (641) 
'='

>  <Standard Units>  (641) 
%

>  <Standard Value>  (641) 
0.01

>  <Assay ChEMBL ID>  (641) 
CHEMBL1962241

>  <Assay Description>  (641) 
GSK_PKIS: ALK mean inhibition at 1 uM [Nanosyn]

>  <BAO Format ID>  (641) 
BAO_0000357

>  <BAO Label>  (641) 
single protein format

>  <Assay Organism>  (641) 
None

>  <Target ChEMBL ID>  (641) 
CHEMBL4247

>  <Target Name>  (641) 
ALK tyrosine kinase receptor

>  <Target Organism>  (641) 
Homo sapiens

>  <Target Type>  (641) 
SINGLE PROTEIN

>  <Document ChEMBL ID>  (641) 
CHEMBL1961873

>  <Source Description>  (641) 
GSK Published Kinase Inhibitor Set

>  <Document Journal>  (641) 
nan

>  <Document Year>  (641) 
nan

>  <Active>  (641) 
0.0

>  <bits>  (641) 
<rdkit.DataStructs.cDataStructs.ExplicitBitVect object at 0x000002422F16EC00>

>  <Group>  (641) 
G2

$$$$

     RDKit          2D

 28 31  0  0  0  0  0  0  0  0999 V2000
    7.5000   -7.7942    0.0000 C   0  0  0  0  0  0  0  0  0  0  0  0
    8.2500   -6.4952    0.0000 O   0  0  0  0  0  0  0  0  0  0  0  0
    7.5000   -5.1962    0.0000 C   0  0  0  0  0  0  0  0  0  0  0  0
    6.0000   -5.1962    0.0000 C   0  0  0  0  0  0  0  0  0  0  0  0
    5.2500   -3.8971    0.0000 C   0  0  0  0  0  0  0  0  0  0  0  0
    3.7500   -3.8971    0.0000 C   0  0  0  0  0  0  0  0  0  0  0  0
    3.0000   -2.5981    0.0000 N   0  0  0  0  0  0  0  0  0  0  0  0
    1.5000   -2.5981    0.0000 N   0  0  0  0  0  0  0  0  0  0  0  0
    0.7500   -1.2990    0.0000 C   0  0  0  0  0  0  0  0  0  0  0  0
    1.5000    0.0000    0.0000 N   0  0  0  0  0  0  0  0  0  0  0  0
    0.7500    1.2990    0.0000 C   0  0  0  0  0  0  0  0  0  0  0  0
   -0.7500    1.2990    0.0000 N   0  0  0  0  0  0  0  0  0  0  0  0
   -1.5000    0.0000    0.0000 C   0  0  0  0  0  0  0  0  0  0  0  0
   -0.7500   -1.2990    0.0000 C   0  0  0  0  0  0  0  0  0  0  0  0
   -1.7537   -2.4138    0.0000 C   0  0  0  0  0  0  0  0  0  0  0  0
   -3.1240   -1.8037    0.0000 N   0  0  0  0  0  0  0  0  0  0  0  0
   -2.9672   -0.3119    0.0000 N   0  0  0  0  0  0  0  0  0  0  0  0
   -4.0819    0.6918    0.0000 C   0  0  0  0  0  0  0  0  0  0  0  0
   -5.5085    0.2283    0.0000 C   0  0  0  0  0  0  0  0  0  0  0  0
   -6.6232    1.2320    0.0000 C   0  0  0  0  0  0  0  0  0  0  0  0
   -8.0498    0.7685    0.0000 C   0  0  0  0  0  0  0  0  0  0  0  0
   -8.3617   -0.6987    0.0000 C   0  0  0  0  0  0  0  0  0  0  0  0
   -7.2470   -1.7024    0.0000 C   0  0  0  0  0  0  0  0  0  0  0  0
   -5.8204   -1.2389    0.0000 C   0  0  0  0  0  0  0  0  0  0  0  0
    6.0000   -2.5981    0.0000 C   0  0  0  0  0  0  0  0  0  0  0  0
    7.5000   -2.5981    0.0000 C   0  0  0  0  0  0  0  0  0  0  0  0
    8.2500   -3.8971    0.0000 C   0  0  0  0  0  0  0  0  0  0  0  0
    9.7500   -3.8971    0.0000 O   0  0  0  0  0  0  0  0  0  0  0  0
  1  2  1  0
  2  3  1  0
  3  4  2  0
  4  5  1  0
  5  6  1  0
  6  7  2  3
  7  8  1  0
  8  9  1  0
  9 10  2  0
 10 11  1  0
 11 12  2  0
 12 13  1  0
 13 14  2  0
 14 15  1  0
 15 16  2  0
 16 17  1  0
 17 18  1  0
 18 19  1  0
 19 20  2  0
 20 21  1  0
 21 22  2  0
 22 23  1  0
 23 24  2  0
  5 25  2  0
 25 26  1  0
 26 27  2  0
 27 28  1  0
 27  3  1  0
 14  9  1  0
 24 19  1  0
 17 13  1  0
M  END
>  <Compound_ID>  (642) 
CHEMBL1789962

>  <Molecule Name>  (642) 
GW643971X

>  <Molecular Weight>  (642) 
374.4

>  <AlogP>  (642) 
3.03

>  <Smiles>  (642) 
COc1cc(C=NNc2ncnc3c2cnn3Cc2ccccc2)ccc1O

>  <Standard Type>  (642) 
Inhibition

>  <Standard Relation>  (642) 
'='

>  <Standard Units>  (642) 
%

>  <Standard Value>  (642) 
-2.43

>  <Assay ChEMBL ID>  (642) 
CHEMBL1962241

>  <Assay Description>  (642) 
GSK_PKIS: ALK mean inhibition at 1 uM [Nanosyn]

>  <BAO Format ID>  (642) 
BAO_0000357

>  <BAO Label>  (642) 
single protein format

>  <Assay Organism>  (642) 
None

>  <Target ChEMBL ID>  (642) 
CHEMBL4247

>  <Target Name>  (642) 
ALK tyrosine kinase receptor

>  <Target Organism>  (642) 
Homo sapiens

>  <Target Type>  (642) 
SINGLE PROTEIN

>  <Document ChEMBL ID>  (642) 
CHEMBL1961873

>  <Source Description>  (642) 
GSK Published Kinase Inhibitor Set

>  <Document Journal>  (642) 
nan

>  <Document Year>  (642) 
nan

>  <Active>  (642) 
0.0

>  <bits>  (642) 
<rdkit.DataStructs.cDataStructs.ExplicitBitVect object at 0x000002422F16E570>

>  <Group>  (642) 
G2

$$$$

     RDKit          2D

 35 39  0  0  0  0  0  0  0  0999 V2000
    3.0000    0.0000    0.0000 C   0  0  0  0  0  0  0  0  0  0  0  0
    1.5000    0.0000    0.0000 C   0  0  0  0  0  0  0  0  0  0  0  0
    0.7500   -1.2990    0.0000 C   0  0  0  0  0  0  0  0  0  0  0  0
   -0.7500   -1.2990    0.0000 C   0  0  0  0  0  0  0  0  0  0  0  0
   -1.5000    0.0000    0.0000 C   0  0  0  0  0  0  0  0  0  0  0  0
   -3.0000    0.0000    0.0000 N   0  0  0  0  0  0  0  0  0  0  0  0
   -3.7500    1.2990    0.0000 C   0  0  0  0  0  0  0  0  0  0  0  0
   -3.0000    2.5981    0.0000 O   0  0  0  0  0  0  0  0  0  0  0  0
   -5.2500    1.2990    0.0000 C   0  0  0  0  0  0  0  0  0  0  0  0
   -6.0000    2.5981    0.0000 C   0  0  0  0  0  0  0  0  0  0  0  0
   -7.5000    2.5981    0.0000 C   0  0  0  0  0  0  0  0  0  0  0  0
   -8.2500    1.2990    0.0000 N   0  0  0  0  0  0  0  0  0  0  0  0
   -7.5000    0.0000    0.0000 C   0  0  0  0  0  0  0  0  0  0  0  0
   -8.2500   -1.2990    0.0000 N   0  0  0  0  0  0  0  0  0  0  0  0
   -9.7500   -1.2990    0.0000 C   0  0  0  0  0  0  0  0  0  0  0  0
  -10.5000   -2.5981    0.0000 C   0  0  0  0  0  0  0  0  0  0  0  0
   -9.7500   -3.8971    0.0000 O   0  0  0  0  0  0  0  0  0  0  0  0
   -8.2500   -3.8971    0.0000 C   0  0  0  0  0  0  0  0  0  0  0  0
   -7.5000   -2.5981    0.0000 C   0  0  0  0  0  0  0  0  0  0  0  0
   -6.0000    0.0000    0.0000 C   0  0  0  0  0  0  0  0  0  0  0  0
   -0.7500    1.2990    0.0000 C   0  0  0  0  0  0  0  0  0  0  0  0
    0.7500    1.2990    0.0000 C   0  0  0  0  0  0  0  0  0  0  0  0
    1.5000    2.5981    0.0000 C   0  0  0  0  0  0  0  0  0  0  0  0
    3.0000    2.5981    0.0000 C   0  0  0  0  0  0  0  0  0  0  0  0
    3.7500    3.8971    0.0000 C   0  0  0  0  0  0  0  0  0  0  0  0
    3.0000    5.1962    0.0000 C   0  0  0  0  0  0  0  0  0  0  0  0
    3.7500    6.4952    0.0000 C   0  0  0  0  0  0  0  0  0  0  0  0
    3.0000    7.7942    0.0000 O   0  0  0  0  0  0  0  0  0  0  0  0
    5.2500    6.4952    0.0000 N   0  0  0  0  0  0  0  0  0  0  0  0
    6.0000    7.7942    0.0000 C   0  0  0  0  0  0  0  0  0  0  0  0
    7.5000    7.7942    0.0000 C   0  0  0  0  0  0  0  0  0  0  0  0
    8.7990    8.5442    0.0000 C   0  0  0  0  0  0  0  0  0  0  0  0
    8.7990    7.0442    0.0000 C   0  0  0  0  0  0  0  0  0  0  0  0
    1.5000    5.1962    0.0000 C   0  0  0  0  0  0  0  0  0  0  0  0
    0.7500    3.8971    0.0000 C   0  0  0  0  0  0  0  0  0  0  0  0
  1  2  1  0
  2  3  2  0
  3  4  1  0
  4  5  2  0
  5  6  1  0
  6  7  1  0
  7  8  2  0
  7  9  1  0
  9 10  2  0
 10 11  1  0
 11 12  2  0
 12 13  1  0
 13 14  1  0
 14 15  1  0
 15 16  1  0
 16 17  1  0
 17 18  1  0
 18 19  1  0
 13 20  2  0
  5 21  1  0
 21 22  2  0
 22 23  1  0
 23 24  2  0
 24 25  1  0
 25 26  2  0
 26 27  1  0
 27 28  2  0
 27 29  1  0
 29 30  1  0
 30 31  1  0
 31 32  1  0
 32 33  1  0
 26 34  1  0
 34 35  2  0
 22  2  1  0
 35 23  1  0
 20  9  1  0
 33 31  1  0
 19 14  1  0
M  END
>  <Compound_ID>  (643) 
CHEMBL476351

>  <Molecule Name>  (643) 
GW775608X

>  <Molecular Weight>  (643) 
470.57

>  <AlogP>  (643) 
4.29

>  <Smiles>  (643) 
Cc1ccc(NC(=O)c2ccnc(N3CCOCC3)c2)cc1-c1ccc(C(=O)NCC2CC2)cc1

>  <Standard Type>  (643) 
Inhibition

>  <Standard Relation>  (643) 
'='

>  <Standard Units>  (643) 
%

>  <Standard Value>  (643) 
1.53

>  <Assay ChEMBL ID>  (643) 
CHEMBL1962241

>  <Assay Description>  (643) 
GSK_PKIS: ALK mean inhibition at 1 uM [Nanosyn]

>  <BAO Format ID>  (643) 
BAO_0000357

>  <BAO Label>  (643) 
single protein format

>  <Assay Organism>  (643) 
None

>  <Target ChEMBL ID>  (643) 
CHEMBL4247

>  <Target Name>  (643) 
ALK tyrosine kinase receptor

>  <Target Organism>  (643) 
Homo sapiens

>  <Target Type>  (643) 
SINGLE PROTEIN

>  <Document ChEMBL ID>  (643) 
CHEMBL1961873

>  <Source Description>  (643) 
GSK Published Kinase Inhibitor Set

>  <Document Journal>  (643) 
nan

>  <Document Year>  (643) 
nan

>  <Active>  (643) 
0.0

>  <bits>  (643) 
<rdkit.DataStructs.cDataStructs.ExplicitBitVect object at 0x000002422F16DA80>

>  <Group>  (643) 
G2

$$$$

     RDKit          2D

 21 24  0  0  0  0  0  0  0  0999 V2000
   -2.8864    8.8834    0.0000 F   0  0  0  0  0  0  0  0  0  0  0  0
   -2.4229    7.4568    0.0000 C   0  0  0  0  0  0  0  0  0  0  0  0
   -0.9556    7.1449    0.0000 C   0  0  0  0  0  0  0  0  0  0  0  0
   -0.4921    5.7184    0.0000 C   0  0  0  0  0  0  0  0  0  0  0  0
   -1.4958    4.6036    0.0000 C   0  0  0  0  0  0  0  0  0  0  0  0
   -1.0323    3.1771    0.0000 C   0  0  0  0  0  0  0  0  0  0  0  0
   -1.9140    1.9635    0.0000 N   0  0  0  0  0  0  0  0  0  0  0  0
   -1.0323    0.7500    0.0000 C   0  0  0  0  0  0  0  0  0  0  0  0
    0.3943    1.2135    0.0000 N   0  0  0  0  0  0  0  0  0  0  0  0
    0.3943    2.7135    0.0000 C   0  0  0  0  0  0  0  0  0  0  0  0
    1.6078    3.5952    0.0000 C   0  0  0  0  0  0  0  0  0  0  0  0
    2.9781    2.9851    0.0000 C   0  0  0  0  0  0  0  0  0  0  0  0
    4.1917    3.8668    0.0000 C   0  0  0  0  0  0  0  0  0  0  0  0
    4.0349    5.3586    0.0000 N   0  0  0  0  0  0  0  0  0  0  0  0
    2.6646    5.9687    0.0000 C   0  0  0  0  0  0  0  0  0  0  0  0
    1.4510    5.0870    0.0000 C   0  0  0  0  0  0  0  0  0  0  0  0
    1.2760    0.0000    0.0000 C   0  0  0  0  0  0  0  0  0  0  0  0
    0.3943   -1.2135    0.0000 C   0  0  0  0  0  0  0  0  0  0  0  0
   -1.0323   -0.7500    0.0000 S   0  0  0  0  0  0  0  0  0  0  0  0
   -2.9630    4.9155    0.0000 C   0  0  0  0  0  0  0  0  0  0  0  0
   -3.4266    6.3421    0.0000 C   0  0  0  0  0  0  0  0  0  0  0  0
  1  2  1  0
  2  3  2  0
  3  4  1  0
  4  5  2  0
  5  6  1  0
  6  7  1  0
  7  8  2  0
  8  9  1  0
  9 10  1  0
 10 11  1  0
 11 12  2  0
 12 13  1  0
 13 14  2  0
 14 15  1  0
 15 16  2  0
  9 17  1  0
 17 18  1  0
 18 19  1  0
  5 20  1  0
 20 21  2  0
 21  2  1  0
 10  6  2  0
 16 11  1  0
 19  8  1  0
M  END
>  <Compound_ID>  (644) 
CHEMBL1909406

>  <Molecule Name>  (644) 
nan

>  <Molecular Weight>  (644) 
333.82

>  <AlogP>  (644) 
3.86

>  <Smiles>  (644) 
Fc1ccc(-c2nc3n(c2-c2ccncc2)CCS3)cc1

>  <Standard Type>  (644) 
Inhibition

>  <Standard Relation>  (644) 
'='

>  <Standard Units>  (644) 
%

>  <Standard Value>  (644) 
-0.77

>  <Assay ChEMBL ID>  (644) 
CHEMBL1962240

>  <Assay Description>  (644) 
GSK_PKIS: ALK mean inhibition at 0.1 uM [Nanosyn]

>  <BAO Format ID>  (644) 
BAO_0000357

>  <BAO Label>  (644) 
single protein format

>  <Assay Organism>  (644) 
None

>  <Target ChEMBL ID>  (644) 
CHEMBL4247

>  <Target Name>  (644) 
ALK tyrosine kinase receptor

>  <Target Organism>  (644) 
Homo sapiens

>  <Target Type>  (644) 
SINGLE PROTEIN

>  <Document ChEMBL ID>  (644) 
CHEMBL1961873

>  <Source Description>  (644) 
GSK Published Kinase Inhibitor Set

>  <Document Journal>  (644) 
nan

>  <Document Year>  (644) 
nan

>  <Active>  (644) 
0.0

>  <bits>  (644) 
<rdkit.DataStructs.cDataStructs.ExplicitBitVect object at 0x000002422F16E810>

>  <Group>  (644) 
G2

$$$$

     RDKit          2D

 43 47  0  0  0  0  0  0  0  0999 V2000
   -1.3632  -12.1594    0.0000 C   0  0  0  0  0  0  0  0  0  0  0  0
   -1.2064  -10.6676    0.0000 S   0  0  0  0  0  0  0  0  0  0  0  0
    0.2854  -10.8244    0.0000 O   0  0  0  0  0  0  0  0  0  0  0  0
   -2.6982  -10.5109    0.0000 O   0  0  0  0  0  0  0  0  0  0  0  0
   -1.0496   -9.1759    0.0000 C   0  0  0  0  0  0  0  0  0  0  0  0
    0.3207   -8.5658    0.0000 C   0  0  0  0  0  0  0  0  0  0  0  0
    0.4775   -7.0740    0.0000 N   0  0  0  0  0  0  0  0  0  0  0  0
    1.8478   -6.4639    0.0000 C   0  0  0  0  0  0  0  0  0  0  0  0
    2.0046   -4.9721    0.0000 C   0  0  0  0  0  0  0  0  0  0  0  0
    3.3037   -4.2221    0.0000 C   0  0  0  0  0  0  0  0  0  0  0  0
    2.9918   -2.7549    0.0000 C   0  0  0  0  0  0  0  0  0  0  0  0
    1.5000   -2.5981    0.0000 C   0  0  0  0  0  0  0  0  0  0  0  0
    0.7500   -1.2990    0.0000 C   0  0  0  0  0  0  0  0  0  0  0  0
    1.5000    0.0000    0.0000 C   0  0  0  0  0  0  0  0  0  0  0  0
    0.7500    1.2990    0.0000 C   0  0  0  0  0  0  0  0  0  0  0  0
   -0.7500    1.2990    0.0000 C   0  0  0  0  0  0  0  0  0  0  0  0
   -1.5000    2.5981    0.0000 N   0  0  0  0  0  0  0  0  0  0  0  0
   -3.0000    2.5981    0.0000 C   0  0  0  0  0  0  0  0  0  0  0  0
   -3.7500    1.2990    0.0000 N   0  0  0  0  0  0  0  0  0  0  0  0
   -3.0000    0.0000    0.0000 C   0  0  0  0  0  0  0  0  0  0  0  0
   -3.7500   -1.2990    0.0000 N   0  0  0  0  0  0  0  0  0  0  0  0
   -5.2500   -1.2990    0.0000 C   0  0  0  0  0  0  0  0  0  0  0  0
   -6.0000    0.0000    0.0000 C   0  0  0  0  0  0  0  0  0  0  0  0
   -7.5000    0.0000    0.0000 C   0  0  0  0  0  0  0  0  0  0  0  0
   -8.2500   -1.2990    0.0000 C   0  0  0  0  0  0  0  0  0  0  0  0
   -9.7500   -1.2990    0.0000 O   0  0  0  0  0  0  0  0  0  0  0  0
  -10.5000    0.0000    0.0000 C   0  0  0  0  0  0  0  0  0  0  0  0
  -12.0000    0.0000    0.0000 C   0  0  0  0  0  0  0  0  0  0  0  0
  -12.7500    1.2990    0.0000 C   0  0  0  0  0  0  0  0  0  0  0  0
  -14.2500    1.2990    0.0000 C   0  0  0  0  0  0  0  0  0  0  0  0
  -15.0000    0.0000    0.0000 C   0  0  0  0  0  0  0  0  0  0  0  0
  -14.2500   -1.2990    0.0000 C   0  0  0  0  0  0  0  0  0  0  0  0
  -15.0000   -2.5981    0.0000 F   0  0  0  0  0  0  0  0  0  0  0  0
  -12.7500   -1.2990    0.0000 C   0  0  0  0  0  0  0  0  0  0  0  0
   -7.5000   -2.5981    0.0000 C   0  0  0  0  0  0  0  0  0  0  0  0
   -8.2500   -3.8971    0.0000 C   0  0  0  0  0  0  0  0  0  0  0  0
   -9.0000   -5.1962    0.0000 F   0  0  0  0  0  0  0  0  0  0  0  0
   -6.9510   -4.6471    0.0000 F   0  0  0  0  0  0  0  0  0  0  0  0
   -9.5490   -3.1471    0.0000 F   0  0  0  0  0  0  0  0  0  0  0  0
   -6.0000   -2.5981    0.0000 C   0  0  0  0  0  0  0  0  0  0  0  0
   -1.5000    0.0000    0.0000 C   0  0  0  0  0  0  0  0  0  0  0  0
   -0.7500   -1.2990    0.0000 C   0  0  0  0  0  0  0  0  0  0  0  0
    0.8899   -3.9684    0.0000 O   0  0  0  0  0  0  0  0  0  0  0  0
  1  2  1  0
  2  3  2  0
  2  4  2  0
  2  5  1  0
  5  6  1  0
  6  7  1  0
  7  8  1  0
  8  9  1  0
  9 10  2  0
 10 11  1  0
 11 12  2  0
 12 13  1  0
 13 14  2  0
 14 15  1  0
 15 16  2  0
 16 17  1  0
 17 18  2  0
 18 19  1  0
 19 20  2  0
 20 21  1  0
 21 22  1  0
 22 23  2  0
 23 24  1  0
 24 25  2  0
 25 26  1  0
 26 27  1  0
 27 28  1  0
 28 29  2  0
 29 30  1  0
 30 31  2  0
 31 32  1  0
 32 33  1  0
 32 34  2  0
 25 35  1  0
 35 36  1  0
 36 37  1  0
 36 38  1  0
 36 39  1  0
 35 40  2  0
 20 41  1  0
 41 42  2  0
 12 43  1  0
 43  9  1  0
 42 13  1  0
 41 16  1  0
 40 22  1  0
 34 28  1  0
M  END
>  <Compound_ID>  (645) 
CHEMBL215814

>  <Molecule Name>  (645) 
GW576484X

>  <Molecular Weight>  (645) 
614.62

>  <AlogP>  (645) 
6.5

>  <Smiles>  (645) 
CS(=O)(=O)CCNCc1ccc(-c2ccc3ncnc(Nc4ccc(OCc5cccc(F)c5)c(C(F)(F)F)c4)c3c2)o1

>  <Standard Type>  (645) 
Inhibition

>  <Standard Relation>  (645) 
'='

>  <Standard Units>  (645) 
%

>  <Standard Value>  (645) 
2.6

>  <Assay ChEMBL ID>  (645) 
CHEMBL1962241

>  <Assay Description>  (645) 
GSK_PKIS: ALK mean inhibition at 1 uM [Nanosyn]

>  <BAO Format ID>  (645) 
BAO_0000357

>  <BAO Label>  (645) 
single protein format

>  <Assay Organism>  (645) 
None

>  <Target ChEMBL ID>  (645) 
CHEMBL4247

>  <Target Name>  (645) 
ALK tyrosine kinase receptor

>  <Target Organism>  (645) 
Homo sapiens

>  <Target Type>  (645) 
SINGLE PROTEIN

>  <Document ChEMBL ID>  (645) 
CHEMBL1961873

>  <Source Description>  (645) 
GSK Published Kinase Inhibitor Set

>  <Document Journal>  (645) 
nan

>  <Document Year>  (645) 
nan

>  <Active>  (645) 
0.0

>  <bits>  (645) 
<rdkit.DataStructs.cDataStructs.ExplicitBitVect object at 0x000002422F16D7E0>

>  <Group>  (645) 
G2

$$$$

     RDKit          2D

 20 21  0  0  0  0  0  0  0  0999 V2000
    3.0000    0.0000    0.0000 C   0  0  0  0  0  0  0  0  0  0  0  0
    1.5000    0.0000    0.0000 C   0  0  0  0  0  0  0  0  0  0  0  0
    0.7500   -1.2990    0.0000 C   0  0  0  0  0  0  0  0  0  0  0  0
   -0.7500   -1.2990    0.0000 C   0  0  0  0  0  0  0  0  0  0  0  0
   -1.5000   -2.5981    0.0000 O   0  0  0  0  0  0  0  0  0  0  0  0
   -1.5000    0.0000    0.0000 C   0  0  0  0  0  0  0  0  0  0  0  0
   -0.7500    1.2990    0.0000 C   0  0  0  0  0  0  0  0  0  0  0  0
   -1.5000    2.5981    0.0000 C   0  0  0  0  0  0  0  0  0  0  0  0
    0.7500    1.2990    0.0000 C   0  0  0  0  0  0  0  0  0  0  0  0
    1.5000    2.5981    0.0000 C   0  0  0  0  0  0  0  0  0  0  0  0
    3.0000    2.5981    0.0000 C   0  0  0  0  0  0  0  0  0  0  0  0
    3.7500    3.8971    0.0000 C   0  0  0  0  0  0  0  0  0  0  0  0
    5.2500    3.8971    0.0000 C   0  0  0  0  0  0  0  0  0  0  0  0
    6.0000    5.1962    0.0000 N   0  0  0  0  0  0  0  0  0  0  0  0
    5.2500    6.4952    0.0000 C   0  0  0  0  0  0  0  0  0  0  0  0
    3.7500    6.4952    0.0000 C   0  0  0  0  0  0  0  0  0  0  0  0
    3.0000    7.7942    0.0000 C   0  0  0  0  0  0  0  0  0  0  0  0
    3.7500    9.0933    0.0000 N   0  0  0  0  0  0  0  0  0  0  0  0
    1.5000    7.7942    0.0000 O   0  0  0  0  0  0  0  0  0  0  0  0
    3.0000    5.1962    0.0000 C   0  0  0  0  0  0  0  0  0  0  0  0
  1  2  1  0
  2  3  2  0
  3  4  1  0
  4  5  1  0
  4  6  2  0
  6  7  1  0
  7  8  1  0
  7  9  2  0
  9 10  1  0
 10 11  2  0
 11 12  1  0
 12 13  2  0
 13 14  1  0
 14 15  2  0
 15 16  1  0
 16 17  1  0
 17 18  1  0
 17 19  2  0
 16 20  2  0
  9  2  1  0
 20 12  1  0
M  END
>  <Compound_ID>  (646) 
CHEMBL218088

>  <Molecule Name>  (646) 
GW435821X

>  <Molecular Weight>  (646) 
268.32

>  <AlogP>  (646) 
2.67

>  <Smiles>  (646) 
Cc1cc(O)cc(C)c1/C=C/c1cncc(C(N)=O)c1

>  <Standard Type>  (646) 
Inhibition

>  <Standard Relation>  (646) 
'='

>  <Standard Units>  (646) 
%

>  <Standard Value>  (646) 
3.62

>  <Assay ChEMBL ID>  (646) 
CHEMBL1962240

>  <Assay Description>  (646) 
GSK_PKIS: ALK mean inhibition at 0.1 uM [Nanosyn]

>  <BAO Format ID>  (646) 
BAO_0000357

>  <BAO Label>  (646) 
single protein format

>  <Assay Organism>  (646) 
None

>  <Target ChEMBL ID>  (646) 
CHEMBL4247

>  <Target Name>  (646) 
ALK tyrosine kinase receptor

>  <Target Organism>  (646) 
Homo sapiens

>  <Target Type>  (646) 
SINGLE PROTEIN

>  <Document ChEMBL ID>  (646) 
CHEMBL1961873

>  <Source Description>  (646) 
GSK Published Kinase Inhibitor Set

>  <Document Journal>  (646) 
nan

>  <Document Year>  (646) 
nan

>  <Active>  (646) 
0.0

>  <bits>  (646) 
<rdkit.DataStructs.cDataStructs.ExplicitBitVect object at 0x000002422F16FE60>

>  <Group>  (646) 
G2

$$$$

     RDKit          2D

 37 42  0  0  0  0  0  0  0  0999 V2000
   -0.2010   -8.5442    0.0000 C   0  0  0  0  0  0  0  0  0  0  0  0
   -1.5000   -7.7942    0.0000 C   0  0  0  0  0  0  0  0  0  0  0  0
   -2.7990   -7.0442    0.0000 C   0  0  0  0  0  0  0  0  0  0  0  0
   -2.2500   -9.0933    0.0000 O   0  0  0  0  0  0  0  0  0  0  0  0
   -0.7500   -6.4952    0.0000 C   0  0  0  0  0  0  0  0  0  0  0  0
   -1.5000   -5.1962    0.0000 C   0  0  0  0  0  0  0  0  0  0  0  0
   -0.7500   -3.8971    0.0000 C   0  0  0  0  0  0  0  0  0  0  0  0
    0.7500   -3.8971    0.0000 N   0  0  0  0  0  0  0  0  0  0  0  0
    1.5000   -2.5981    0.0000 C   0  0  0  0  0  0  0  0  0  0  0  0
    0.7500   -1.2990    0.0000 C   0  0  0  0  0  0  0  0  0  0  0  0
    1.5000    0.0000    0.0000 C   0  0  0  0  0  0  0  0  0  0  0  0
    0.7500    1.2990    0.0000 C   0  0  0  0  0  0  0  0  0  0  0  0
   -0.7500    1.2990    0.0000 C   0  0  0  0  0  0  0  0  0  0  0  0
   -1.5000    2.5981    0.0000 N   0  0  0  0  0  0  0  0  0  0  0  0
   -3.0000    2.5981    0.0000 C   0  0  0  0  0  0  0  0  0  0  0  0
   -3.7500    3.8971    0.0000 C   0  0  0  0  0  0  0  0  0  0  0  0
   -5.2500    3.8971    0.0000 C   0  0  0  0  0  0  0  0  0  0  0  0
   -6.0000    2.5981    0.0000 F   0  0  0  0  0  0  0  0  0  0  0  0
   -6.0000    5.1962    0.0000 C   0  0  0  0  0  0  0  0  0  0  0  0
   -5.2500    6.4952    0.0000 C   0  0  0  0  0  0  0  0  0  0  0  0
   -3.7500    6.4952    0.0000 C   0  0  0  0  0  0  0  0  0  0  0  0
   -2.7463    7.6099    0.0000 N   0  0  0  0  0  0  0  0  0  0  0  0
   -1.3760    6.9998    0.0000 C   0  0  0  0  0  0  0  0  0  0  0  0
   -1.5328    5.5080    0.0000 C   0  0  0  0  0  0  0  0  0  0  0  0
   -3.0000    5.1962    0.0000 C   0  0  0  0  0  0  0  0  0  0  0  0
   -3.7500    1.2990    0.0000 N   0  0  0  0  0  0  0  0  0  0  0  0
   -3.0000    0.0000    0.0000 C   0  0  0  0  0  0  0  0  0  0  0  0
   -3.7500   -1.2990    0.0000 N   0  0  0  0  0  0  0  0  0  0  0  0
   -5.2500   -1.2990    0.0000 C   0  0  0  0  0  0  0  0  0  0  0  0
   -6.0000   -2.5981    0.0000 C   0  0  0  0  0  0  0  0  0  0  0  0
   -5.2500   -3.8971    0.0000 O   0  0  0  0  0  0  0  0  0  0  0  0
   -3.7500   -3.8971    0.0000 C   0  0  0  0  0  0  0  0  0  0  0  0
   -3.0000   -2.5981    0.0000 C   0  0  0  0  0  0  0  0  0  0  0  0
   -1.5000    0.0000    0.0000 C   0  0  0  0  0  0  0  0  0  0  0  0
   -0.7500   -1.2990    0.0000 N   0  0  0  0  0  0  0  0  0  0  0  0
    1.5000   -5.1962    0.0000 C   0  0  0  0  0  0  0  0  0  0  0  0
    0.7500   -6.4952    0.0000 C   0  0  0  0  0  0  0  0  0  0  0  0
  1  2  1  0
  2  3  1  0
  2  4  1  0
  2  5  1  0
  5  6  1  0
  6  7  1  0
  7  8  1  0
  8  9  1  0
  9 10  1  0
 10 11  2  0
 11 12  1  0
 12 13  2  0
 13 14  1  0
 14 15  2  0
 15 16  1  0
 16 17  2  0
 17 18  1  0
 17 19  1  0
 19 20  2  0
 20 21  1  0
 21 22  1  0
 22 23  1  0
 23 24  2  0
 24 25  1  0
 15 26  1  0
 26 27  2  0
 27 28  1  0
 28 29  1  0
 29 30  1  0
 30 31  1  0
 31 32  1  0
 32 33  1  0
 27 34  1  0
 34 35  2  0
  8 36  1  0
 36 37  1  0
 37  5  1  0
 35 10  1  0
 34 13  1  0
 25 16  1  0
 33 28  1  0
 25 21  2  0
M  END
>  <Compound_ID>  (647) 
CHEMBL2152768

>  <Molecule Name>  (647) 
nan

>  <Molecular Weight>  (647) 
504.61

>  <AlogP>  (647) 
4.13

>  <Smiles>  (647) 
CC(C)(O)C1CCN(Cc2ccc3nc(-c4c(F)ccc5[nH]ccc45)nc(N4CCOCC4)c3n2)CC1

>  <Standard Type>  (647) 
Inhibition

>  <Standard Relation>  (647) 
'='

>  <Standard Units>  (647) 
%

>  <Standard Value>  (647) 
6.2

>  <Assay ChEMBL ID>  (647) 
CHEMBL2157259

>  <Assay Description>  (647) 
Inhibition of ALK at 1 uM

>  <BAO Format ID>  (647) 
BAO_0000357

>  <BAO Label>  (647) 
single protein format

>  <Assay Organism>  (647) 
None

>  <Target ChEMBL ID>  (647) 
CHEMBL4247

>  <Target Name>  (647) 
ALK tyrosine kinase receptor

>  <Target Organism>  (647) 
Homo sapiens

>  <Target Type>  (647) 
SINGLE PROTEIN

>  <Document ChEMBL ID>  (647) 
CHEMBL2151019

>  <Source Description>  (647) 
Scientific Literature

>  <Document Journal>  (647) 
Bioorg Med Chem Lett

>  <Document Year>  (647) 
2012.0

>  <Active>  (647) 
0.0

>  <bits>  (647) 
<rdkit.DataStructs.cDataStructs.ExplicitBitVect object at 0x000002422F16E3B0>

>  <Group>  (647) 
G2

$$$$

     RDKit          2D

 25 27  0  0  0  0  0  0  0  0999 V2000
    3.7500   -1.2990    0.0000 C   0  0  0  0  0  0  0  0  0  0  0  0
    3.0000    0.0000    0.0000 C   0  0  0  0  0  0  0  0  0  0  0  0
    3.7500    1.2990    0.0000 C   0  0  0  0  0  0  0  0  0  0  0  0
    1.5000    0.0000    0.0000 C   0  0  0  0  0  0  0  0  0  0  0  0
    0.7500   -1.2990    0.0000 C   0  0  0  0  0  0  0  0  0  0  0  0
   -0.7500   -1.2990    0.0000 C   0  0  0  0  0  0  0  0  0  0  0  0
   -1.5000    0.0000    0.0000 C   0  0  0  0  0  0  0  0  0  0  0  0
   -0.7500    1.2990    0.0000 C   0  0  0  0  0  0  0  0  0  0  0  0
    0.7500    1.2990    0.0000 C   0  0  0  0  0  0  0  0  0  0  0  0
   -1.7537    2.4138    0.0000 N   0  0  0  0  0  0  0  0  0  0  0  0
   -3.1240    1.8037    0.0000 C   0  0  0  0  0  0  0  0  0  0  0  0
   -4.4231    2.5537    0.0000 O   0  0  0  0  0  0  0  0  0  0  0  0
   -2.9672    0.3119    0.0000 C   0  0  0  0  0  0  0  0  0  0  0  0
   -4.0819   -0.6918    0.0000 N   0  0  0  0  0  0  0  0  0  0  0  0
   -3.7701   -2.1590    0.0000 N   0  0  0  0  0  0  0  0  0  0  0  0
   -4.8848   -3.1627    0.0000 C   0  0  0  0  0  0  0  0  0  0  0  0
   -6.3114   -2.6992    0.0000 C   0  0  0  0  0  0  0  0  0  0  0  0
   -7.4261   -3.7029    0.0000 C   0  0  0  0  0  0  0  0  0  0  0  0
   -7.1142   -5.1701    0.0000 C   0  0  0  0  0  0  0  0  0  0  0  0
   -8.2289   -6.1738    0.0000 S   0  0  0  0  0  0  0  0  0  0  0  0
   -9.3437   -7.1775    0.0000 N   0  0  0  0  0  0  0  0  0  0  0  0
   -9.2326   -5.0591    0.0000 O   0  0  0  0  0  0  0  0  0  0  0  0
   -7.2252   -7.2886    0.0000 O   0  0  0  0  0  0  0  0  0  0  0  0
   -5.6876   -5.6337    0.0000 C   0  0  0  0  0  0  0  0  0  0  0  0
   -4.5729   -4.6300    0.0000 C   0  0  0  0  0  0  0  0  0  0  0  0
  1  2  1  0
  2  3  1  0
  2  4  1  0
  4  5  2  0
  5  6  1  0
  6  7  2  0
  7  8  1  0
  8  9  2  0
  8 10  1  0
 10 11  1  0
 11 12  2  0
 11 13  1  0
 13 14  2  0
 14 15  1  0
 15 16  1  0
 16 17  2  0
 17 18  1  0
 18 19  2  0
 19 20  1  0
 20 21  1  0
 20 22  2  0
 20 23  2  0
 19 24  1  0
 24 25  2  0
  9  4  1  0
 25 16  1  0
 13  7  1  0
M  END
>  <Compound_ID>  (648) 
CHEMBL271594

>  <Molecule Name>  (648) 
GW300653X

>  <Molecular Weight>  (648) 
358.42

>  <AlogP>  (648) 
2.23

>  <Smiles>  (648) 
CC(C)c1ccc2c(c1)NC(=O)/C2=N/Nc1ccc(S(N)(=O)=O)cc1

>  <Standard Type>  (648) 
Inhibition

>  <Standard Relation>  (648) 
'='

>  <Standard Units>  (648) 
%

>  <Standard Value>  (648) 
2.81

>  <Assay ChEMBL ID>  (648) 
CHEMBL1962241

>  <Assay Description>  (648) 
GSK_PKIS: ALK mean inhibition at 1 uM [Nanosyn]

>  <BAO Format ID>  (648) 
BAO_0000357

>  <BAO Label>  (648) 
single protein format

>  <Assay Organism>  (648) 
None

>  <Target ChEMBL ID>  (648) 
CHEMBL4247

>  <Target Name>  (648) 
ALK tyrosine kinase receptor

>  <Target Organism>  (648) 
Homo sapiens

>  <Target Type>  (648) 
SINGLE PROTEIN

>  <Document ChEMBL ID>  (648) 
CHEMBL1961873

>  <Source Description>  (648) 
GSK Published Kinase Inhibitor Set

>  <Document Journal>  (648) 
nan

>  <Document Year>  (648) 
nan

>  <Active>  (648) 
0.0

>  <bits>  (648) 
<rdkit.DataStructs.cDataStructs.ExplicitBitVect object at 0x000002422F16F450>

>  <Group>  (648) 
G2

$$$$

     RDKit          2D

 31 34  0  0  0  0  0  0  0  0999 V2000
   -8.1673  -10.4486    0.0000 O   0  0  0  0  0  0  0  0  0  0  0  0
   -7.8555   -8.9814    0.0000 C   0  0  0  0  0  0  0  0  0  0  0  0
   -6.4289   -8.5179    0.0000 C   0  0  0  0  0  0  0  0  0  0  0  0
   -6.1170   -7.0506    0.0000 C   0  0  0  0  0  0  0  0  0  0  0  0
   -4.6904   -6.5871    0.0000 N   0  0  0  0  0  0  0  0  0  0  0  0
   -4.3786   -5.1199    0.0000 C   0  0  0  0  0  0  0  0  0  0  0  0
   -5.4933   -4.1162    0.0000 N   0  0  0  0  0  0  0  0  0  0  0  0
   -5.1814   -2.6490    0.0000 C   0  0  0  0  0  0  0  0  0  0  0  0
   -3.7548   -2.1855    0.0000 C   0  0  0  0  0  0  0  0  0  0  0  0
   -2.6401   -3.1891    0.0000 C   0  0  0  0  0  0  0  0  0  0  0  0
   -1.2135   -2.7256    0.0000 C   0  0  0  0  0  0  0  0  0  0  0  0
   -0.0000   -3.6073    0.0000 C   0  0  0  0  0  0  0  0  0  0  0  0
   -0.0000   -5.1073    0.0000 C   0  0  0  0  0  0  0  0  0  0  0  0
   -1.2990   -5.8573    0.0000 C   0  0  0  0  0  0  0  0  0  0  0  0
   -1.2990   -7.3573    0.0000 C   0  0  0  0  0  0  0  0  0  0  0  0
   -0.0000   -8.1073    0.0000 C   0  0  0  0  0  0  0  0  0  0  0  0
    0.0000   -9.6073    0.0000 F   0  0  0  0  0  0  0  0  0  0  0  0
    1.2990   -7.3573    0.0000 C   0  0  0  0  0  0  0  0  0  0  0  0
    1.2990   -5.8573    0.0000 C   0  0  0  0  0  0  0  0  0  0  0  0
    1.2135   -2.7256    0.0000 N   0  0  0  0  0  0  0  0  0  0  0  0
    0.7500   -1.2990    0.0000 N   0  0  0  0  0  0  0  0  0  0  0  0
    1.5000    0.0000    0.0000 C   0  0  0  0  0  0  0  0  0  0  0  0
    0.7500    1.2990    0.0000 C   0  0  0  0  0  0  0  0  0  0  0  0
    1.5000    2.5981    0.0000 C   0  0  0  0  0  0  0  0  0  0  0  0
    2.2500    3.8971    0.0000 F   0  0  0  0  0  0  0  0  0  0  0  0
    2.7990    1.8481    0.0000 F   0  0  0  0  0  0  0  0  0  0  0  0
    0.2010    3.3481    0.0000 F   0  0  0  0  0  0  0  0  0  0  0  0
   -0.7500    1.2990    0.0000 C   0  0  0  0  0  0  0  0  0  0  0  0
   -1.5000    0.0000    0.0000 C   0  0  0  0  0  0  0  0  0  0  0  0
   -0.7500   -1.2990    0.0000 C   0  0  0  0  0  0  0  0  0  0  0  0
   -2.9520   -4.6564    0.0000 N   0  0  0  0  0  0  0  0  0  0  0  0
  1  2  1  0
  2  3  1  0
  3  4  1  0
  4  5  1  0
  5  6  1  0
  6  7  2  0
  7  8  1  0
  8  9  2  0
  9 10  1  0
 10 11  1  0
 11 12  1  0
 12 13  1  0
 13 14  2  0
 14 15  1  0
 15 16  2  0
 16 17  1  0
 16 18  1  0
 18 19  2  0
 12 20  2  0
 20 21  1  0
 21 22  1  0
 22 23  2  0
 23 24  1  0
 24 25  1  0
 24 26  1  0
 24 27  1  0
 23 28  1  0
 28 29  2  0
 29 30  1  0
 10 31  2  0
 31  6  1  0
 30 11  2  0
 19 13  1  0
 30 21  1  0
M  END
>  <Compound_ID>  (649) 
CHEMBL1909403

>  <Molecule Name>  (649) 
GW569293E

>  <Molecular Weight>  (649) 
547.47

>  <AlogP>  (649) 
4.41

>  <Smiles>  (649) 
OCCCNc1nccc(-c2c(-c3ccc(F)cc3)nn3cc(C(F)(F)F)ccc23)n1

>  <Standard Type>  (649) 
Inhibition

>  <Standard Relation>  (649) 
'='

>  <Standard Units>  (649) 
%

>  <Standard Value>  (649) 
1.23

>  <Assay ChEMBL ID>  (649) 
CHEMBL1962240

>  <Assay Description>  (649) 
GSK_PKIS: ALK mean inhibition at 0.1 uM [Nanosyn]

>  <BAO Format ID>  (649) 
BAO_0000357

>  <BAO Label>  (649) 
single protein format

>  <Assay Organism>  (649) 
None

>  <Target ChEMBL ID>  (649) 
CHEMBL4247

>  <Target Name>  (649) 
ALK tyrosine kinase receptor

>  <Target Organism>  (649) 
Homo sapiens

>  <Target Type>  (649) 
SINGLE PROTEIN

>  <Document ChEMBL ID>  (649) 
CHEMBL1961873

>  <Source Description>  (649) 
GSK Published Kinase Inhibitor Set

>  <Document Journal>  (649) 
nan

>  <Document Year>  (649) 
nan

>  <Active>  (649) 
0.0

>  <bits>  (649) 
<rdkit.DataStructs.cDataStructs.ExplicitBitVect object at 0x000002422F16E0A0>

>  <Group>  (649) 
G2

$$$$

     RDKit          2D

 38 41  0  0  0  0  0  0  0  0999 V2000
    0.7500   -3.8971    0.0000 C   0  0  0  0  0  0  0  0  0  0  0  0
    1.5000   -2.5981    0.0000 N   0  0  0  0  0  0  0  0  0  0  0  0
    0.7500   -1.2990    0.0000 C   0  0  0  0  0  0  0  0  0  0  0  0
    1.5000    0.0000    0.0000 C   0  0  0  0  0  0  0  0  0  0  0  0
    0.7500    1.2990    0.0000 C   0  0  0  0  0  0  0  0  0  0  0  0
   -0.7500    1.2990    0.0000 C   0  0  0  0  0  0  0  0  0  0  0  0
   -1.5000    2.5981    0.0000 N   0  0  0  0  0  0  0  0  0  0  0  0
   -0.7500    3.8971    0.0000 C   0  0  0  0  0  0  0  0  0  0  0  0
    0.7500    3.8971    0.0000 O   0  0  0  0  0  0  0  0  0  0  0  0
   -1.5000    5.1962    0.0000 N   0  0  0  0  0  0  0  0  0  0  0  0
   -0.7500    6.4952    0.0000 C   0  0  0  0  0  0  0  0  0  0  0  0
    0.7500    6.4952    0.0000 C   0  0  0  0  0  0  0  0  0  0  0  0
    1.5000    5.1962    0.0000 Cl  0  0  0  0  0  0  0  0  0  0  0  0
    1.5000    7.7942    0.0000 C   0  0  0  0  0  0  0  0  0  0  0  0
    0.7500    9.0933    0.0000 C   0  0  0  0  0  0  0  0  0  0  0  0
   -0.7500    9.0933    0.0000 C   0  0  0  0  0  0  0  0  0  0  0  0
   -1.5000    7.7942    0.0000 C   0  0  0  0  0  0  0  0  0  0  0  0
   -3.0000    7.7942    0.0000 Cl  0  0  0  0  0  0  0  0  0  0  0  0
   -1.5000    0.0000    0.0000 C   0  0  0  0  0  0  0  0  0  0  0  0
   -0.7500   -1.2990    0.0000 C   0  0  0  0  0  0  0  0  0  0  0  0
    3.0000   -2.5981    0.0000 C   0  0  0  0  0  0  0  0  0  0  0  0
    3.7500   -3.8971    0.0000 C   0  0  0  0  0  0  0  0  0  0  0  0
    5.2500   -3.8971    0.0000 C   0  0  0  0  0  0  0  0  0  0  0  0
    6.0000   -2.5981    0.0000 N   0  0  0  0  0  0  0  0  0  0  0  0
    5.2500   -1.2990    0.0000 C   0  0  0  0  0  0  0  0  0  0  0  0
    6.0000   -0.0000    0.0000 N   0  0  0  0  0  0  0  0  0  0  0  0
    7.5000   -0.0000    0.0000 C   0  0  0  0  0  0  0  0  0  0  0  0
    8.2500   -1.2990    0.0000 C   0  0  0  0  0  0  0  0  0  0  0  0
    9.7500   -1.2990    0.0000 C   0  0  0  0  0  0  0  0  0  0  0  0
   10.5000   -0.0000    0.0000 C   0  0  0  0  0  0  0  0  0  0  0  0
    9.7500    1.2990    0.0000 C   0  0  0  0  0  0  0  0  0  0  0  0
   10.5000    2.5981    0.0000 C   0  0  0  0  0  0  0  0  0  0  0  0
   12.0000    2.5981    0.0000 S   0  0  0  0  0  0  0  0  0  0  0  0
   13.5000    2.5981    0.0000 C   0  0  0  0  0  0  0  0  0  0  0  0
   12.0000    1.0981    0.0000 O   0  0  0  0  0  0  0  0  0  0  0  0
   12.0000    4.0981    0.0000 O   0  0  0  0  0  0  0  0  0  0  0  0
    8.2500    1.2990    0.0000 C   0  0  0  0  0  0  0  0  0  0  0  0
    3.7500   -1.2990    0.0000 N   0  0  0  0  0  0  0  0  0  0  0  0
  1  2  1  0
  2  3  1  0
  3  4  2  0
  4  5  1  0
  5  6  2  0
  6  7  1  0
  7  8  1  0
  8  9  2  0
  8 10  1  0
 10 11  1  0
 11 12  2  0
 12 13  1  0
 12 14  1  0
 14 15  2  0
 15 16  1  0
 16 17  2  0
 17 18  1  0
  6 19  1  0
 19 20  2  0
  2 21  1  0
 21 22  2  0
 22 23  1  0
 23 24  2  0
 24 25  1  0
 25 26  1  0
 26 27  1  0
 27 28  2  0
 28 29  1  0
 29 30  2  0
 30 31  1  0
 31 32  1  0
 32 33  1  0
 33 34  1  0
 33 35  2  0
 33 36  2  0
 31 37  2  0
 25 38  2  0
 20  3  1  0
 38 21  1  0
 17 11  1  0
 37 27  1  0
M  END
>  <Compound_ID>  (650) 
CHEMBL189353

>  <Molecule Name>  (650) 
GW809897X

>  <Molecular Weight>  (650) 
571.49

>  <AlogP>  (650) 
6.48

>  <Smiles>  (650) 
CN(c1ccc(NC(=O)Nc2c(Cl)cccc2Cl)cc1)c1ccnc(Nc2cccc(CS(C)(=O)=O)c2)n1

>  <Standard Type>  (650) 
Inhibition

>  <Standard Relation>  (650) 
'='

>  <Standard Units>  (650) 
%

>  <Standard Value>  (650) 
1.74

>  <Assay ChEMBL ID>  (650) 
CHEMBL1962240

>  <Assay Description>  (650) 
GSK_PKIS: ALK mean inhibition at 0.1 uM [Nanosyn]

>  <BAO Format ID>  (650) 
BAO_0000357

>  <BAO Label>  (650) 
single protein format

>  <Assay Organism>  (650) 
None

>  <Target ChEMBL ID>  (650) 
CHEMBL4247

>  <Target Name>  (650) 
ALK tyrosine kinase receptor

>  <Target Organism>  (650) 
Homo sapiens

>  <Target Type>  (650) 
SINGLE PROTEIN

>  <Document ChEMBL ID>  (650) 
CHEMBL1961873

>  <Source Description>  (650) 
GSK Published Kinase Inhibitor Set

>  <Document Journal>  (650) 
nan

>  <Document Year>  (650) 
nan

>  <Active>  (650) 
0.0

>  <bits>  (650) 
<rdkit.DataStructs.cDataStructs.ExplicitBitVect object at 0x000002422F16DB60>

>  <Group>  (650) 
G2

$$$$

     RDKit          2D

 28 31  0  0  0  0  0  0  0  0999 V2000
   -2.0143    8.6263    0.0000 C   0  0  0  0  0  0  0  0  0  0  0  0
   -3.4408    8.1628    0.0000 C   0  0  0  0  0  0  0  0  0  0  0  0
   -3.7527    6.6955    0.0000 C   0  0  0  0  0  0  0  0  0  0  0  0
   -2.6380    5.6918    0.0000 C   0  0  0  0  0  0  0  0  0  0  0  0
   -1.2114    6.1554    0.0000 O   0  0  0  0  0  0  0  0  0  0  0  0
   -2.9499    4.2246    0.0000 N   0  0  0  0  0  0  0  0  0  0  0  0
   -1.8351    3.2209    0.0000 C   0  0  0  0  0  0  0  0  0  0  0  0
   -0.4086    3.6844    0.0000 C   0  0  0  0  0  0  0  0  0  0  0  0
    0.7062    2.6807    0.0000 C   0  0  0  0  0  0  0  0  0  0  0  0
    0.3943    1.2135    0.0000 C   0  0  0  0  0  0  0  0  0  0  0  0
    1.2760    0.0000    0.0000 N   0  0  0  0  0  0  0  0  0  0  0  0
    0.3943   -1.2135    0.0000 N   0  0  0  0  0  0  0  0  0  0  0  0
   -1.0323   -0.7500    0.0000 C   0  0  0  0  0  0  0  0  0  0  0  0
   -1.0323    0.7500    0.0000 C   0  0  0  0  0  0  0  0  0  0  0  0
   -2.1470    1.7537    0.0000 C   0  0  0  0  0  0  0  0  0  0  0  0
   -5.1793    6.2320    0.0000 C   0  0  0  0  0  0  0  0  0  0  0  0
   -5.4912    4.7648    0.0000 C   0  0  0  0  0  0  0  0  0  0  0  0
   -6.9177    4.3013    0.0000 C   0  0  0  0  0  0  0  0  0  0  0  0
   -7.2296    2.8340    0.0000 C   0  0  0  0  0  0  0  0  0  0  0  0
   -6.1149    1.8303    0.0000 C   0  0  0  0  0  0  0  0  0  0  0  0
   -6.4268    0.3631    0.0000 Cl  0  0  0  0  0  0  0  0  0  0  0  0
   -4.6883    2.2939    0.0000 C   0  0  0  0  0  0  0  0  0  0  0  0
   -3.5736    1.2902    0.0000 Cl  0  0  0  0  0  0  0  0  0  0  0  0
   -4.3764    3.7611    0.0000 C   0  0  0  0  0  0  0  0  0  0  0  0
   -6.2940    7.2357    0.0000 C   0  0  0  0  0  0  0  0  0  0  0  0
   -5.9821    8.7029    0.0000 C   0  0  0  0  0  0  0  0  0  0  0  0
   -7.0969    9.7066    0.0000 O   0  0  0  0  0  0  0  0  0  0  0  0
   -4.5556    9.1664    0.0000 N   0  0  0  0  0  0  0  0  0  0  0  0
  1  2  1  0
  2  3  2  0
  3  4  1  0
  4  5  2  0
  4  6  1  0
  6  7  1  0
  7  8  2  0
  8  9  1  0
  9 10  2  0
 10 11  1  0
 11 12  1  0
 12 13  2  0
 13 14  1  0
 14 15  2  0
  3 16  1  0
 16 17  1  0
 17 18  2  0
 18 19  1  0
 19 20  2  0
 20 21  1  0
 20 22  1  0
 22 23  1  0
 22 24  2  0
 16 25  1  0
 25 26  1  0
 26 27  2  0
 26 28  1  0
 28  2  1  0
 15  7  1  0
 24 17  1  0
 14 10  1  0
M  END
>  <Compound_ID>  (651) 
CHEMBL374453

>  <Molecule Name>  (651) 
GSK-299115A

>  <Molecular Weight>  (651) 
415.28

>  <AlogP>  (651) 
4.39

>  <Smiles>  (651) 
CC1=C(C(=O)Nc2ccc3[nH]ncc3c2)C(c2ccc(Cl)c(Cl)c2)CC(=O)N1

>  <Standard Type>  (651) 
Inhibition

>  <Standard Relation>  (651) 
'='

>  <Standard Units>  (651) 
%

>  <Standard Value>  (651) 
0.6

>  <Assay ChEMBL ID>  (651) 
CHEMBL1962240

>  <Assay Description>  (651) 
GSK_PKIS: ALK mean inhibition at 0.1 uM [Nanosyn]

>  <BAO Format ID>  (651) 
BAO_0000357

>  <BAO Label>  (651) 
single protein format

>  <Assay Organism>  (651) 
None

>  <Target ChEMBL ID>  (651) 
CHEMBL4247

>  <Target Name>  (651) 
ALK tyrosine kinase receptor

>  <Target Organism>  (651) 
Homo sapiens

>  <Target Type>  (651) 
SINGLE PROTEIN

>  <Document ChEMBL ID>  (651) 
CHEMBL1961873

>  <Source Description>  (651) 
GSK Published Kinase Inhibitor Set

>  <Document Journal>  (651) 
nan

>  <Document Year>  (651) 
nan

>  <Active>  (651) 
0.0

>  <bits>  (651) 
<rdkit.DataStructs.cDataStructs.ExplicitBitVect object at 0x000002422F16ED50>

>  <Group>  (651) 
G2

$$$$

     RDKit          2D

 20 22  0  0  0  0  0  0  0  0999 V2000
    1.8478   -6.4639    0.0000 O   0  0  0  0  0  0  0  0  0  0  0  0
    2.0046   -4.9721    0.0000 C   0  0  0  0  0  0  0  0  0  0  0  0
    3.3037   -4.2221    0.0000 N   0  0  0  0  0  0  0  0  0  0  0  0
    2.9918   -2.7549    0.0000 C   0  0  0  0  0  0  0  0  0  0  0  0
    3.9955   -1.6402    0.0000 O   0  0  0  0  0  0  0  0  0  0  0  0
    1.5000   -2.5981    0.0000 C   0  0  0  0  0  0  0  0  0  0  0  0
    0.7500   -1.2990    0.0000 C   0  0  0  0  0  0  0  0  0  0  0  0
    1.5000    0.0000    0.0000 C   0  0  0  0  0  0  0  0  0  0  0  0
    0.7500    1.2990    0.0000 C   0  0  0  0  0  0  0  0  0  0  0  0
   -0.7500    1.2990    0.0000 C   0  0  0  0  0  0  0  0  0  0  0  0
   -1.5000    0.0000    0.0000 C   0  0  0  0  0  0  0  0  0  0  0  0
   -0.7500   -1.2990    0.0000 C   0  0  0  0  0  0  0  0  0  0  0  0
    0.8899   -3.9684    0.0000 C   0  0  0  0  0  0  0  0  0  0  0  0
   -0.5773   -4.2803    0.0000 N   0  0  0  0  0  0  0  0  0  0  0  0
   -1.0409   -5.7068    0.0000 C   0  0  0  0  0  0  0  0  0  0  0  0
   -2.5081   -6.0187    0.0000 C   0  0  0  0  0  0  0  0  0  0  0  0
   -2.9716   -7.4453    0.0000 C   0  0  0  0  0  0  0  0  0  0  0  0
   -1.9679   -8.5600    0.0000 C   0  0  0  0  0  0  0  0  0  0  0  0
   -0.5007   -8.2481    0.0000 C   0  0  0  0  0  0  0  0  0  0  0  0
   -0.0372   -6.8216    0.0000 C   0  0  0  0  0  0  0  0  0  0  0  0
  1  2  2  0
  2  3  1  0
  3  4  1  0
  4  5  2  0
  4  6  1  0
  6  7  1  0
  7  8  2  0
  8  9  1  0
  9 10  2  0
 10 11  1  0
 11 12  2  0
  6 13  2  0
 13 14  1  0
 14 15  1  0
 15 16  2  0
 16 17  1  0
 17 18  2  0
 18 19  1  0
 19 20  2  0
 13  2  1  0
 20 15  1  0
 12  7  1  0
M  END
>  <Compound_ID>  (652) 
CHEMBL346551

>  <Molecule Name>  (652) 
nan

>  <Molecular Weight>  (652) 
264.28

>  <AlogP>  (652) 
2.17

>  <Smiles>  (652) 
O=C1NC(=O)C(c2ccccc2)=C1Nc1ccccc1

>  <Standard Type>  (652) 
Inhibition

>  <Standard Relation>  (652) 
'='

>  <Standard Units>  (652) 
%

>  <Standard Value>  (652) 
14.98

>  <Assay ChEMBL ID>  (652) 
CHEMBL1962241

>  <Assay Description>  (652) 
GSK_PKIS: ALK mean inhibition at 1 uM [Nanosyn]

>  <BAO Format ID>  (652) 
BAO_0000357

>  <BAO Label>  (652) 
single protein format

>  <Assay Organism>  (652) 
None

>  <Target ChEMBL ID>  (652) 
CHEMBL4247

>  <Target Name>  (652) 
ALK tyrosine kinase receptor

>  <Target Organism>  (652) 
Homo sapiens

>  <Target Type>  (652) 
SINGLE PROTEIN

>  <Document ChEMBL ID>  (652) 
CHEMBL1961873

>  <Source Description>  (652) 
GSK Published Kinase Inhibitor Set

>  <Document Journal>  (652) 
nan

>  <Document Year>  (652) 
nan

>  <Active>  (652) 
0.0

>  <bits>  (652) 
<rdkit.DataStructs.cDataStructs.ExplicitBitVect object at 0x000002422F16F920>

>  <Group>  (652) 
G2

$$$$

     RDKit          2D

 33 36  0  0  0  0  0  0  0  0999 V2000
   -9.5939  -10.9121    0.0000 C   0  0  0  0  0  0  0  0  0  0  0  0
   -8.1673  -10.4486    0.0000 N   0  0  0  0  0  0  0  0  0  0  0  0
   -7.0526  -11.4523    0.0000 C   0  0  0  0  0  0  0  0  0  0  0  0
   -7.8555   -8.9814    0.0000 C   0  0  0  0  0  0  0  0  0  0  0  0
   -6.4289   -8.5179    0.0000 C   0  0  0  0  0  0  0  0  0  0  0  0
   -6.1170   -7.0506    0.0000 C   0  0  0  0  0  0  0  0  0  0  0  0
   -4.6904   -6.5871    0.0000 N   0  0  0  0  0  0  0  0  0  0  0  0
   -4.3786   -5.1199    0.0000 C   0  0  0  0  0  0  0  0  0  0  0  0
   -5.4933   -4.1162    0.0000 N   0  0  0  0  0  0  0  0  0  0  0  0
   -5.1814   -2.6490    0.0000 C   0  0  0  0  0  0  0  0  0  0  0  0
   -3.7548   -2.1855    0.0000 C   0  0  0  0  0  0  0  0  0  0  0  0
   -2.6401   -3.1891    0.0000 C   0  0  0  0  0  0  0  0  0  0  0  0
   -1.2135   -2.7256    0.0000 C   0  0  0  0  0  0  0  0  0  0  0  0
   -0.0000   -3.6073    0.0000 C   0  0  0  0  0  0  0  0  0  0  0  0
   -0.0000   -5.1073    0.0000 C   0  0  0  0  0  0  0  0  0  0  0  0
   -1.2990   -5.8573    0.0000 C   0  0  0  0  0  0  0  0  0  0  0  0
   -1.2990   -7.3573    0.0000 C   0  0  0  0  0  0  0  0  0  0  0  0
   -0.0000   -8.1073    0.0000 C   0  0  0  0  0  0  0  0  0  0  0  0
    0.0000   -9.6073    0.0000 F   0  0  0  0  0  0  0  0  0  0  0  0
    1.2990   -7.3573    0.0000 C   0  0  0  0  0  0  0  0  0  0  0  0
    1.2990   -5.8573    0.0000 C   0  0  0  0  0  0  0  0  0  0  0  0
    1.2135   -2.7256    0.0000 N   0  0  0  0  0  0  0  0  0  0  0  0
    0.7500   -1.2990    0.0000 N   0  0  0  0  0  0  0  0  0  0  0  0
    1.5000    0.0000    0.0000 C   0  0  0  0  0  0  0  0  0  0  0  0
    0.7500    1.2990    0.0000 C   0  0  0  0  0  0  0  0  0  0  0  0
    1.5000    2.5981    0.0000 C   0  0  0  0  0  0  0  0  0  0  0  0
    2.2500    3.8971    0.0000 F   0  0  0  0  0  0  0  0  0  0  0  0
    2.7990    1.8481    0.0000 F   0  0  0  0  0  0  0  0  0  0  0  0
    0.2010    3.3481    0.0000 F   0  0  0  0  0  0  0  0  0  0  0  0
   -0.7500    1.2990    0.0000 C   0  0  0  0  0  0  0  0  0  0  0  0
   -1.5000    0.0000    0.0000 C   0  0  0  0  0  0  0  0  0  0  0  0
   -0.7500   -1.2990    0.0000 C   0  0  0  0  0  0  0  0  0  0  0  0
   -2.9520   -4.6564    0.0000 N   0  0  0  0  0  0  0  0  0  0  0  0
  1  2  1  0
  2  3  1  0
  2  4  1  0
  4  5  1  0
  5  6  1  0
  6  7  1  0
  7  8  1  0
  8  9  2  0
  9 10  1  0
 10 11  2  0
 11 12  1  0
 12 13  1  0
 13 14  1  0
 14 15  1  0
 15 16  2  0
 16 17  1  0
 17 18  2  0
 18 19  1  0
 18 20  1  0
 20 21  2  0
 14 22  2  0
 22 23  1  0
 23 24  1  0
 24 25  2  0
 25 26  1  0
 26 27  1  0
 26 28  1  0
 26 29  1  0
 25 30  1  0
 30 31  2  0
 31 32  1  0
 12 33  2  0
 33  8  1  0
 32 13  2  0
 21 15  1  0
 32 23  1  0
M  END
>  <Compound_ID>  (653) 
CHEMBL1909405

>  <Molecule Name>  (653) 
GW618013A

>  <Molecular Weight>  (653) 
554.57

>  <AlogP>  (653) 
4.98

>  <Smiles>  (653) 
CN(C)CCCNc1nccc(-c2c(-c3ccc(F)cc3)nn3cc(C(F)(F)F)ccc23)n1

>  <Standard Type>  (653) 
Inhibition

>  <Standard Relation>  (653) 
'='

>  <Standard Units>  (653) 
%

>  <Standard Value>  (653) 
-0.07

>  <Assay ChEMBL ID>  (653) 
CHEMBL1962241

>  <Assay Description>  (653) 
GSK_PKIS: ALK mean inhibition at 1 uM [Nanosyn]

>  <BAO Format ID>  (653) 
BAO_0000357

>  <BAO Label>  (653) 
single protein format

>  <Assay Organism>  (653) 
None

>  <Target ChEMBL ID>  (653) 
CHEMBL4247

>  <Target Name>  (653) 
ALK tyrosine kinase receptor

>  <Target Organism>  (653) 
Homo sapiens

>  <Target Type>  (653) 
SINGLE PROTEIN

>  <Document ChEMBL ID>  (653) 
CHEMBL1961873

>  <Source Description>  (653) 
GSK Published Kinase Inhibitor Set

>  <Document Journal>  (653) 
nan

>  <Document Year>  (653) 
nan

>  <Active>  (653) 
0.0

>  <bits>  (653) 
<rdkit.DataStructs.cDataStructs.ExplicitBitVect object at 0x000002422F16D770>

>  <Group>  (653) 
G2

$$$$

     RDKit          2D

 31 34  0  0  0  0  0  0  0  0999 V2000
    5.2500   -1.2990    0.0000 C   0  0  0  0  0  0  0  0  0  0  0  0
    3.7500   -1.2990    0.0000 C   0  0  0  0  0  0  0  0  0  0  0  0
    3.0000    0.0000    0.0000 O   0  0  0  0  0  0  0  0  0  0  0  0
    1.5000    0.0000    0.0000 C   0  0  0  0  0  0  0  0  0  0  0  0
    0.7500   -1.2990    0.0000 C   0  0  0  0  0  0  0  0  0  0  0  0
   -0.7500   -1.2990    0.0000 C   0  0  0  0  0  0  0  0  0  0  0  0
   -1.5000    0.0000    0.0000 C   0  0  0  0  0  0  0  0  0  0  0  0
   -2.9672    0.3119    0.0000 C   0  0  0  0  0  0  0  0  0  0  0  0
   -4.0819   -0.6918    0.0000 C   0  0  0  0  0  0  0  0  0  0  0  0
   -5.5085   -0.2283    0.0000 C   0  0  0  0  0  0  0  0  0  0  0  0
   -6.6232   -1.2320    0.0000 C   0  0  0  0  0  0  0  0  0  0  0  0
   -6.3114   -2.6992    0.0000 N   0  0  0  0  0  0  0  0  0  0  0  0
   -4.8848   -3.1627    0.0000 C   0  0  0  0  0  0  0  0  0  0  0  0
   -4.5729   -4.6300    0.0000 N   0  0  0  0  0  0  0  0  0  0  0  0
   -5.6876   -5.6337    0.0000 C   0  0  0  0  0  0  0  0  0  0  0  0
   -7.1142   -5.1701    0.0000 C   0  0  0  0  0  0  0  0  0  0  0  0
   -8.2289   -6.1738    0.0000 C   0  0  0  0  0  0  0  0  0  0  0  0
   -9.6555   -5.7103    0.0000 O   0  0  0  0  0  0  0  0  0  0  0  0
   -9.9674   -4.2431    0.0000 C   0  0  0  0  0  0  0  0  0  0  0  0
   -7.9171   -7.6411    0.0000 C   0  0  0  0  0  0  0  0  0  0  0  0
   -6.4905   -8.1046    0.0000 C   0  0  0  0  0  0  0  0  0  0  0  0
   -6.1786   -9.5718    0.0000 C   0  0  0  0  0  0  0  0  0  0  0  0
   -5.8668  -11.0390    0.0000 F   0  0  0  0  0  0  0  0  0  0  0  0
   -7.6458   -9.8837    0.0000 F   0  0  0  0  0  0  0  0  0  0  0  0
   -4.7114   -9.2599    0.0000 F   0  0  0  0  0  0  0  0  0  0  0  0
   -5.3758   -7.1009    0.0000 C   0  0  0  0  0  0  0  0  0  0  0  0
   -3.7701   -2.1590    0.0000 N   0  0  0  0  0  0  0  0  0  0  0  0
   -3.1240    1.8037    0.0000 C   0  0  0  0  0  0  0  0  0  0  0  0
   -1.7537    2.4138    0.0000 N   0  0  0  0  0  0  0  0  0  0  0  0
   -0.7500    1.2990    0.0000 N   0  0  0  0  0  0  0  0  0  0  0  0
    0.7500    1.2990    0.0000 N   0  0  0  0  0  0  0  0  0  0  0  0
  1  2  1  0
  2  3  1  0
  3  4  1  0
  4  5  1  0
  5  6  2  0
  6  7  1  0
  7  8  2  0
  8  9  1  0
  9 10  2  0
 10 11  1  0
 11 12  2  0
 12 13  1  0
 13 14  1  0
 14 15  1  0
 15 16  2  0
 16 17  1  0
 17 18  1  0
 18 19  1  0
 17 20  2  0
 20 21  1  0
 21 22  1  0
 22 23  1  0
 22 24  1  0
 22 25  1  0
 21 26  2  0
 13 27  2  0
  8 28  1  0
 28 29  2  0
 29 30  1  0
 30 31  1  0
 31  4  2  0
 30  7  1  0
 27  9  1  0
 26 15  1  0
M  END
>  <Compound_ID>  (654) 
CHEMBL188426

>  <Molecule Name>  (654) 
GW807982X

>  <Molecular Weight>  (654) 
430.39

>  <AlogP>  (654) 
4.36

>  <Smiles>  (654) 
CCOc1ccc2c(-c3ccnc(Nc4cc(OC)cc(C(F)(F)F)c4)n3)cnn2n1

>  <Standard Type>  (654) 
Inhibition

>  <Standard Relation>  (654) 
'='

>  <Standard Units>  (654) 
%

>  <Standard Value>  (654) 
1.27

>  <Assay ChEMBL ID>  (654) 
CHEMBL1962241

>  <Assay Description>  (654) 
GSK_PKIS: ALK mean inhibition at 1 uM [Nanosyn]

>  <BAO Format ID>  (654) 
BAO_0000357

>  <BAO Label>  (654) 
single protein format

>  <Assay Organism>  (654) 
None

>  <Target ChEMBL ID>  (654) 
CHEMBL4247

>  <Target Name>  (654) 
ALK tyrosine kinase receptor

>  <Target Organism>  (654) 
Homo sapiens

>  <Target Type>  (654) 
SINGLE PROTEIN

>  <Document ChEMBL ID>  (654) 
CHEMBL1961873

>  <Source Description>  (654) 
GSK Published Kinase Inhibitor Set

>  <Document Journal>  (654) 
nan

>  <Document Year>  (654) 
nan

>  <Active>  (654) 
0.0

>  <bits>  (654) 
<rdkit.DataStructs.cDataStructs.ExplicitBitVect object at 0x000002422F16D690>

>  <Group>  (654) 
G2

$$$$

     RDKit          2D

 26 29  0  0  0  0  0  0  0  0999 V2000
   -6.9771   -5.6725    0.0000 N   0  0  0  0  0  0  0  0  0  0  0  0
   -5.4853   -5.8293    0.0000 C   0  0  0  0  0  0  0  0  0  0  0  0
   -4.8752   -7.1996    0.0000 O   0  0  0  0  0  0  0  0  0  0  0  0
   -4.6036   -4.6157    0.0000 C   0  0  0  0  0  0  0  0  0  0  0  0
   -3.1036   -4.6157    0.0000 S   0  0  0  0  0  0  0  0  0  0  0  0
   -2.6401   -3.1891    0.0000 C   0  0  0  0  0  0  0  0  0  0  0  0
   -1.2135   -2.7256    0.0000 N   0  0  0  0  0  0  0  0  0  0  0  0
   -0.0000   -3.6073    0.0000 C   0  0  0  0  0  0  0  0  0  0  0  0
    1.2135   -2.7256    0.0000 N   0  0  0  0  0  0  0  0  0  0  0  0
    0.7500   -1.2990    0.0000 C   0  0  0  0  0  0  0  0  0  0  0  0
    1.5000    0.0000    0.0000 C   0  0  0  0  0  0  0  0  0  0  0  0
    0.7500    1.2990    0.0000 C   0  0  0  0  0  0  0  0  0  0  0  0
   -0.7500    1.2990    0.0000 C   0  0  0  0  0  0  0  0  0  0  0  0
   -1.5000    0.0000    0.0000 C   0  0  0  0  0  0  0  0  0  0  0  0
   -0.7500   -1.2990    0.0000 C   0  0  0  0  0  0  0  0  0  0  0  0
   -3.8536   -2.3075    0.0000 C   0  0  0  0  0  0  0  0  0  0  0  0
   -5.0672   -3.1891    0.0000 C   0  0  0  0  0  0  0  0  0  0  0  0
   -6.4937   -2.7256    0.0000 O   0  0  0  0  0  0  0  0  0  0  0  0
   -6.8056   -1.2584    0.0000 C   0  0  0  0  0  0  0  0  0  0  0  0
   -8.2322   -0.7949    0.0000 C   0  0  0  0  0  0  0  0  0  0  0  0
   -8.5441    0.6723    0.0000 C   0  0  0  0  0  0  0  0  0  0  0  0
   -9.9707    1.1359    0.0000 C   0  0  0  0  0  0  0  0  0  0  0  0
  -11.0854    0.1322    0.0000 C   0  0  0  0  0  0  0  0  0  0  0  0
  -10.7735   -1.3350    0.0000 C   0  0  0  0  0  0  0  0  0  0  0  0
   -9.3469   -1.7986    0.0000 C   0  0  0  0  0  0  0  0  0  0  0  0
   -9.0350   -3.2658    0.0000 Br  0  0  0  0  0  0  0  0  0  0  0  0
  1  2  1  0
  2  3  2  0
  2  4  1  0
  4  5  1  0
  5  6  1  0
  6  7  1  0
  7  8  1  0
  8  9  2  0
  9 10  1  0
 10 11  2  0
 11 12  1  0
 12 13  2  0
 13 14  1  0
 14 15  2  0
  6 16  2  0
 16 17  1  0
 17 18  1  0
 18 19  1  0
 19 20  1  0
 20 21  2  0
 21 22  1  0
 22 23  2  0
 23 24  1  0
 24 25  2  0
 25 26  1  0
 17  4  2  0
 25 20  1  0
 15  7  1  0
 15 10  1  0
M  END
>  <Compound_ID>  (655) 
CHEMBL518953

>  <Molecule Name>  (655) 
GSK-1023156A

>  <Molecular Weight>  (655) 
428.31

>  <AlogP>  (655) 
4.53

>  <Smiles>  (655) 
NC(=O)c1sc(-n2cnc3ccccc32)cc1OCc1ccccc1Br

>  <Standard Type>  (655) 
Inhibition

>  <Standard Relation>  (655) 
'='

>  <Standard Units>  (655) 
%

>  <Standard Value>  (655) 
6.94

>  <Assay ChEMBL ID>  (655) 
CHEMBL1962241

>  <Assay Description>  (655) 
GSK_PKIS: ALK mean inhibition at 1 uM [Nanosyn]

>  <BAO Format ID>  (655) 
BAO_0000357

>  <BAO Label>  (655) 
single protein format

>  <Assay Organism>  (655) 
None

>  <Target ChEMBL ID>  (655) 
CHEMBL4247

>  <Target Name>  (655) 
ALK tyrosine kinase receptor

>  <Target Organism>  (655) 
Homo sapiens

>  <Target Type>  (655) 
SINGLE PROTEIN

>  <Document ChEMBL ID>  (655) 
CHEMBL1961873

>  <Source Description>  (655) 
GSK Published Kinase Inhibitor Set

>  <Document Journal>  (655) 
nan

>  <Document Year>  (655) 
nan

>  <Active>  (655) 
0.0

>  <bits>  (655) 
<rdkit.DataStructs.cDataStructs.ExplicitBitVect object at 0x000002422F16F760>

>  <Group>  (655) 
G2

$$$$

     RDKit          2D

 26 29  0  0  0  0  0  0  0  0999 V2000
   -0.2758   10.5570    0.0000 N   0  0  0  0  0  0  0  0  0  0  0  0
   -1.7024   10.0935    0.0000 C   0  0  0  0  0  0  0  0  0  0  0  0
   -2.8171   11.0972    0.0000 O   0  0  0  0  0  0  0  0  0  0  0  0
   -2.0143    8.6263    0.0000 C   0  0  0  0  0  0  0  0  0  0  0  0
   -0.8995    7.6226    0.0000 C   0  0  0  0  0  0  0  0  0  0  0  0
   -1.2114    6.1554    0.0000 C   0  0  0  0  0  0  0  0  0  0  0  0
   -2.6380    5.6918    0.0000 C   0  0  0  0  0  0  0  0  0  0  0  0
   -3.7527    6.6955    0.0000 C   0  0  0  0  0  0  0  0  0  0  0  0
   -5.1793    6.2320    0.0000 N   0  0  0  0  0  0  0  0  0  0  0  0
   -5.4912    4.7648    0.0000 C   0  0  0  0  0  0  0  0  0  0  0  0
   -6.9177    4.3013    0.0000 N   0  0  0  0  0  0  0  0  0  0  0  0
   -7.2296    2.8340    0.0000 C   0  0  0  0  0  0  0  0  0  0  0  0
   -6.1149    1.8303    0.0000 C   0  0  0  0  0  0  0  0  0  0  0  0
   -4.6883    2.2939    0.0000 C   0  0  0  0  0  0  0  0  0  0  0  0
   -3.5736    1.2902    0.0000 N   0  0  0  0  0  0  0  0  0  0  0  0
   -2.1470    1.7537    0.0000 C   0  0  0  0  0  0  0  0  0  0  0  0
   -1.8351    3.2209    0.0000 C   0  0  0  0  0  0  0  0  0  0  0  0
   -0.4086    3.6844    0.0000 C   0  0  0  0  0  0  0  0  0  0  0  0
    0.7062    2.6807    0.0000 C   0  0  0  0  0  0  0  0  0  0  0  0
    0.3943    1.2135    0.0000 C   0  0  0  0  0  0  0  0  0  0  0  0
    1.2760    0.0000    0.0000 N   0  0  0  0  0  0  0  0  0  0  0  0
    0.3943   -1.2135    0.0000 N   0  0  0  0  0  0  0  0  0  0  0  0
   -1.0323   -0.7500    0.0000 C   0  0  0  0  0  0  0  0  0  0  0  0
   -1.0323    0.7500    0.0000 C   0  0  0  0  0  0  0  0  0  0  0  0
   -4.3764    3.7611    0.0000 N   0  0  0  0  0  0  0  0  0  0  0  0
   -3.4408    8.1628    0.0000 C   0  0  0  0  0  0  0  0  0  0  0  0
  1  2  1  0
  2  3  2  0
  2  4  1  0
  4  5  2  0
  5  6  1  0
  6  7  2  0
  7  8  1  0
  8  9  1  0
  9 10  1  0
 10 11  2  0
 11 12  1  0
 12 13  2  0
 13 14  1  0
 14 15  1  0
 15 16  1  0
 16 17  2  0
 17 18  1  0
 18 19  2  0
 19 20  1  0
 20 21  1  0
 21 22  1  0
 22 23  2  0
 23 24  1  0
 14 25  2  0
  8 26  2  0
 26  4  1  0
 25 10  1  0
 24 16  1  0
 24 20  2  0
M  END
>  <Compound_ID>  (656) 
CHEMBL251549

>  <Molecule Name>  (656) 
GW782612X

>  <Molecular Weight>  (656) 
345.37

>  <AlogP>  (656) 
2.94

>  <Smiles>  (656) 
NC(=O)c1cccc(Nc2nccc(Nc3cccc4[nH]ncc34)n2)c1

>  <Standard Type>  (656) 
Inhibition

>  <Standard Relation>  (656) 
'='

>  <Standard Units>  (656) 
%

>  <Standard Value>  (656) 
15.45

>  <Assay ChEMBL ID>  (656) 
CHEMBL1962241

>  <Assay Description>  (656) 
GSK_PKIS: ALK mean inhibition at 1 uM [Nanosyn]

>  <BAO Format ID>  (656) 
BAO_0000357

>  <BAO Label>  (656) 
single protein format

>  <Assay Organism>  (656) 
None

>  <Target ChEMBL ID>  (656) 
CHEMBL4247

>  <Target Name>  (656) 
ALK tyrosine kinase receptor

>  <Target Organism>  (656) 
Homo sapiens

>  <Target Type>  (656) 
SINGLE PROTEIN

>  <Document ChEMBL ID>  (656) 
CHEMBL1961873

>  <Source Description>  (656) 
GSK Published Kinase Inhibitor Set

>  <Document Journal>  (656) 
nan

>  <Document Year>  (656) 
nan

>  <Active>  (656) 
0.0

>  <bits>  (656) 
<rdkit.DataStructs.cDataStructs.ExplicitBitVect object at 0x000002422F16F3E0>

>  <Group>  (656) 
G2

$$$$

     RDKit          2D

 19 21  0  0  0  0  0  0  0  0999 V2000
    3.0000    0.0000    0.0000 C   0  0  0  0  0  0  0  0  0  0  0  0
    1.5000    0.0000    0.0000 C   0  0  0  0  0  0  0  0  0  0  0  0
    0.7500   -1.2990    0.0000 C   0  0  0  0  0  0  0  0  0  0  0  0
   -0.7500   -1.2990    0.0000 C   0  0  0  0  0  0  0  0  0  0  0  0
   -1.5000    0.0000    0.0000 C   0  0  0  0  0  0  0  0  0  0  0  0
   -0.7500    1.2990    0.0000 C   0  0  0  0  0  0  0  0  0  0  0  0
   -1.5000    2.5981    0.0000 N   0  0  0  0  0  0  0  0  0  0  0  0
   -0.7500    3.8971    0.0000 C   0  0  0  0  0  0  0  0  0  0  0  0
   -1.3601    5.2674    0.0000 N   0  0  0  0  0  0  0  0  0  0  0  0
   -0.2454    6.2711    0.0000 C   0  0  0  0  0  0  0  0  0  0  0  0
    1.0537    5.5211    0.0000 C   0  0  0  0  0  0  0  0  0  0  0  0
    2.4240    6.1312    0.0000 C   0  0  0  0  0  0  0  0  0  0  0  0
    3.6375    5.2496    0.0000 C   0  0  0  0  0  0  0  0  0  0  0  0
    5.0078    5.8597    0.0000 C   0  0  0  0  0  0  0  0  0  0  0  0
    5.1646    7.3514    0.0000 C   0  0  0  0  0  0  0  0  0  0  0  0
    3.9511    8.2331    0.0000 C   0  0  0  0  0  0  0  0  0  0  0  0
    2.5808    7.6230    0.0000 C   0  0  0  0  0  0  0  0  0  0  0  0
    0.7418    4.0539    0.0000 O   0  0  0  0  0  0  0  0  0  0  0  0
    0.7500    1.2990    0.0000 C   0  0  0  0  0  0  0  0  0  0  0  0
  1  2  1  0
  2  3  2  0
  3  4  1  0
  4  5  2  0
  5  6  1  0
  6  7  1  0
  7  8  1  0
  8  9  2  0
  9 10  1  0
 10 11  2  0
 11 12  1  0
 12 13  2  0
 13 14  1  0
 14 15  2  0
 15 16  1  0
 16 17  2  0
 11 18  1  0
  6 19  2  0
 19  2  1  0
 18  8  1  0
 17 12  1  0
M  END
>  <Compound_ID>  (657) 
CHEMBL192417

>  <Molecule Name>  (657) 
GW632046X

>  <Molecular Weight>  (657) 
250.3

>  <AlogP>  (657) 
4.39

>  <Smiles>  (657) 
Cc1cccc(Nc2ncc(-c3ccccc3)o2)c1

>  <Standard Type>  (657) 
Inhibition

>  <Standard Relation>  (657) 
'='

>  <Standard Units>  (657) 
%

>  <Standard Value>  (657) 
4.76

>  <Assay ChEMBL ID>  (657) 
CHEMBL1962241

>  <Assay Description>  (657) 
GSK_PKIS: ALK mean inhibition at 1 uM [Nanosyn]

>  <BAO Format ID>  (657) 
BAO_0000357

>  <BAO Label>  (657) 
single protein format

>  <Assay Organism>  (657) 
None

>  <Target ChEMBL ID>  (657) 
CHEMBL4247

>  <Target Name>  (657) 
ALK tyrosine kinase receptor

>  <Target Organism>  (657) 
Homo sapiens

>  <Target Type>  (657) 
SINGLE PROTEIN

>  <Document ChEMBL ID>  (657) 
CHEMBL1961873

>  <Source Description>  (657) 
GSK Published Kinase Inhibitor Set

>  <Document Journal>  (657) 
nan

>  <Document Year>  (657) 
nan

>  <Active>  (657) 
0.0

>  <bits>  (657) 
<rdkit.DataStructs.cDataStructs.ExplicitBitVect object at 0x000002422F16E340>

>  <Group>  (657) 
G2

$$$$

     RDKit          2D

 22 24  0  0  0  0  0  0  0  0999 V2000
    4.5000    0.0000    0.0000 N   0  0  0  0  0  0  0  0  0  0  0  0
    3.0000    0.0000    0.0000 S   0  0  0  0  0  0  0  0  0  0  0  0
    3.0000   -1.5000    0.0000 O   0  0  0  0  0  0  0  0  0  0  0  0
    3.0000    1.5000    0.0000 O   0  0  0  0  0  0  0  0  0  0  0  0
    1.5000    0.0000    0.0000 C   0  0  0  0  0  0  0  0  0  0  0  0
    0.7500   -1.2990    0.0000 C   0  0  0  0  0  0  0  0  0  0  0  0
   -0.7500   -1.2990    0.0000 C   0  0  0  0  0  0  0  0  0  0  0  0
   -1.5000    0.0000    0.0000 C   0  0  0  0  0  0  0  0  0  0  0  0
   -3.0000    0.0000    0.0000 N   0  0  0  0  0  0  0  0  0  0  0  0
   -3.7500    1.2990    0.0000 C   0  0  0  0  0  0  0  0  0  0  0  0
   -5.2418    1.4558    0.0000 N   0  0  0  0  0  0  0  0  0  0  0  0
   -5.5537    2.9231    0.0000 C   0  0  0  0  0  0  0  0  0  0  0  0
   -4.2546    3.6731    0.0000 C   0  0  0  0  0  0  0  0  0  0  0  0
   -4.0978    5.1648    0.0000 C   0  0  0  0  0  0  0  0  0  0  0  0
   -2.7275    5.7749    0.0000 C   0  0  0  0  0  0  0  0  0  0  0  0
   -2.5707    7.2667    0.0000 C   0  0  0  0  0  0  0  0  0  0  0  0
   -3.7842    8.1484    0.0000 C   0  0  0  0  0  0  0  0  0  0  0  0
   -5.1546    7.5383    0.0000 C   0  0  0  0  0  0  0  0  0  0  0  0
   -5.3113    6.0465    0.0000 C   0  0  0  0  0  0  0  0  0  0  0  0
   -3.1399    2.6694    0.0000 O   0  0  0  0  0  0  0  0  0  0  0  0
   -0.7500    1.2990    0.0000 C   0  0  0  0  0  0  0  0  0  0  0  0
    0.7500    1.2990    0.0000 C   0  0  0  0  0  0  0  0  0  0  0  0
  1  2  1  0
  2  3  2  0
  2  4  2  0
  2  5  1  0
  5  6  2  0
  6  7  1  0
  7  8  2  0
  8  9  1  0
  9 10  1  0
 10 11  2  0
 11 12  1  0
 12 13  2  0
 13 14  1  0
 14 15  2  0
 15 16  1  0
 16 17  2  0
 17 18  1  0
 18 19  2  0
 13 20  1  0
  8 21  1  0
 21 22  2  0
 22  5  1  0
 20 10  1  0
 19 14  1  0
M  END
>  <Compound_ID>  (658) 
CHEMBL194062

>  <Molecule Name>  (658) 
GW572399X

>  <Molecular Weight>  (658) 
315.35

>  <AlogP>  (658) 
2.73

>  <Smiles>  (658) 
NS(=O)(=O)c1ccc(Nc2ncc(-c3ccccc3)o2)cc1

>  <Standard Type>  (658) 
Inhibition

>  <Standard Relation>  (658) 
'='

>  <Standard Units>  (658) 
%

>  <Standard Value>  (658) 
6.29

>  <Assay ChEMBL ID>  (658) 
CHEMBL1962241

>  <Assay Description>  (658) 
GSK_PKIS: ALK mean inhibition at 1 uM [Nanosyn]

>  <BAO Format ID>  (658) 
BAO_0000357

>  <BAO Label>  (658) 
single protein format

>  <Assay Organism>  (658) 
None

>  <Target ChEMBL ID>  (658) 
CHEMBL4247

>  <Target Name>  (658) 
ALK tyrosine kinase receptor

>  <Target Organism>  (658) 
Homo sapiens

>  <Target Type>  (658) 
SINGLE PROTEIN

>  <Document ChEMBL ID>  (658) 
CHEMBL1961873

>  <Source Description>  (658) 
GSK Published Kinase Inhibitor Set

>  <Document Journal>  (658) 
nan

>  <Document Year>  (658) 
nan

>  <Active>  (658) 
0.0

>  <bits>  (658) 
<rdkit.DataStructs.cDataStructs.ExplicitBitVect object at 0x000002422F16EFF0>

>  <Group>  (658) 
G2

$$$$

     RDKit          2D

 28 32  0  0  0  0  0  0  0  0999 V2000
   -1.9091   14.2602    0.0000 O   0  0  0  0  0  0  0  0  0  0  0  0
   -2.7908   13.0467    0.0000 C   0  0  0  0  0  0  0  0  0  0  0  0
   -2.1807   11.6764    0.0000 C   0  0  0  0  0  0  0  0  0  0  0  0
   -0.6889   11.5196    0.0000 C   0  0  0  0  0  0  0  0  0  0  0  0
   -0.0788   10.1493    0.0000 C   0  0  0  0  0  0  0  0  0  0  0  0
   -0.9605    8.9357    0.0000 C   0  0  0  0  0  0  0  0  0  0  0  0
   -0.3504    7.5654    0.0000 C   0  0  0  0  0  0  0  0  0  0  0  0
    1.1168    7.2536    0.0000 N   0  0  0  0  0  0  0  0  0  0  0  0
    1.2736    5.7618    0.0000 C   0  0  0  0  0  0  0  0  0  0  0  0
    2.5727    5.0118    0.0000 C   0  0  0  0  0  0  0  0  0  0  0  0
    2.5727    3.5118    0.0000 C   0  0  0  0  0  0  0  0  0  0  0  0
    3.8717    2.7618    0.0000 C   0  0  0  0  0  0  0  0  0  0  0  0
    5.1707    3.5118    0.0000 C   0  0  0  0  0  0  0  0  0  0  0  0
    5.1707    5.0118    0.0000 C   0  0  0  0  0  0  0  0  0  0  0  0
    3.8717    5.7618    0.0000 N   0  0  0  0  0  0  0  0  0  0  0  0
   -0.0967    5.1517    0.0000 C   0  0  0  0  0  0  0  0  0  0  0  0
   -0.4086    3.6844    0.0000 C   0  0  0  0  0  0  0  0  0  0  0  0
   -1.8351    3.2209    0.0000 C   0  0  0  0  0  0  0  0  0  0  0  0
   -2.1470    1.7537    0.0000 C   0  0  0  0  0  0  0  0  0  0  0  0
   -1.0323    0.7500    0.0000 C   0  0  0  0  0  0  0  0  0  0  0  0
    0.3943    1.2135    0.0000 C   0  0  0  0  0  0  0  0  0  0  0  0
    0.7062    2.6807    0.0000 C   0  0  0  0  0  0  0  0  0  0  0  0
    1.2760    0.0000    0.0000 O   0  0  0  0  0  0  0  0  0  0  0  0
    0.3943   -1.2135    0.0000 C   0  0  0  0  0  0  0  0  0  0  0  0
   -1.0323   -0.7500    0.0000 O   0  0  0  0  0  0  0  0  0  0  0  0
   -1.1004    6.2664    0.0000 N   0  0  0  0  0  0  0  0  0  0  0  0
   -2.4523    9.0925    0.0000 C   0  0  0  0  0  0  0  0  0  0  0  0
   -3.0624   10.4628    0.0000 C   0  0  0  0  0  0  0  0  0  0  0  0
  1  2  1  0
  2  3  1  0
  3  4  2  0
  4  5  1  0
  5  6  2  0
  6  7  1  0
  7  8  2  0
  8  9  1  0
  9 10  1  0
 10 11  2  0
 11 12  1  0
 12 13  2  0
 13 14  1  0
 14 15  2  0
  9 16  2  0
 16 17  1  0
 17 18  2  0
 18 19  1  0
 19 20  2  0
 20 21  1  0
 21 22  2  0
 21 23  1  0
 23 24  1  0
 24 25  1  0
 16 26  1  0
  6 27  1  0
 27 28  2  0
 28  3  1  0
 26  7  1  0
 15 10  1  0
 22 17  1  0
 25 20  1  0
M  END
>  <Compound_ID>  (659) 
CHEMBL267228

>  <Molecule Name>  (659) 
nan

>  <Molecular Weight>  (659) 
371.4

>  <AlogP>  (659) 
4.03

>  <Smiles>  (659) 
OCc1ccc(-c2nc(-c3ccccn3)c(-c3ccc4c(c3)OCO4)[nH]2)cc1

>  <Standard Type>  (659) 
Inhibition

>  <Standard Relation>  (659) 
'='

>  <Standard Units>  (659) 
%

>  <Standard Value>  (659) 
3.63

>  <Assay ChEMBL ID>  (659) 
CHEMBL1962240

>  <Assay Description>  (659) 
GSK_PKIS: ALK mean inhibition at 0.1 uM [Nanosyn]

>  <BAO Format ID>  (659) 
BAO_0000357

>  <BAO Label>  (659) 
single protein format

>  <Assay Organism>  (659) 
None

>  <Target ChEMBL ID>  (659) 
CHEMBL4247

>  <Target Name>  (659) 
ALK tyrosine kinase receptor

>  <Target Organism>  (659) 
Homo sapiens

>  <Target Type>  (659) 
SINGLE PROTEIN

>  <Document ChEMBL ID>  (659) 
CHEMBL1961873

>  <Source Description>  (659) 
GSK Published Kinase Inhibitor Set

>  <Document Journal>  (659) 
nan

>  <Document Year>  (659) 
nan

>  <Active>  (659) 
0.0

>  <bits>  (659) 
<rdkit.DataStructs.cDataStructs.ExplicitBitVect object at 0x000002422F16FB50>

>  <Group>  (659) 
G2

$$$$

     RDKit          2D

 22 25  0  0  0  0  0  0  0  0999 V2000
   -4.6740   -7.4303    0.0000 N   0  0  0  0  0  0  0  0  0  0  0  0
   -3.3037   -6.8202    0.0000 C   0  0  0  0  0  0  0  0  0  0  0  0
   -2.0046   -7.5702    0.0000 N   0  0  0  0  0  0  0  0  0  0  0  0
   -0.8899   -6.5665    0.0000 C   0  0  0  0  0  0  0  0  0  0  0  0
    0.5773   -6.8783    0.0000 C   0  0  0  0  0  0  0  0  0  0  0  0
    1.0409   -8.3049    0.0000 C   0  0  0  0  0  0  0  0  0  0  0  0
    2.5081   -8.6168    0.0000 C   0  0  0  0  0  0  0  0  0  0  0  0
    3.5118   -7.5021    0.0000 C   0  0  0  0  0  0  0  0  0  0  0  0
    3.0482   -6.0755    0.0000 C   0  0  0  0  0  0  0  0  0  0  0  0
    1.5810   -5.7636    0.0000 N   0  0  0  0  0  0  0  0  0  0  0  0
   -1.5000   -5.1962    0.0000 C   0  0  0  0  0  0  0  0  0  0  0  0
   -0.7500   -3.8971    0.0000 C   0  0  0  0  0  0  0  0  0  0  0  0
    0.7500   -3.8971    0.0000 C   0  0  0  0  0  0  0  0  0  0  0  0
    1.5000   -2.5981    0.0000 C   0  0  0  0  0  0  0  0  0  0  0  0
    0.7500   -1.2990    0.0000 C   0  0  0  0  0  0  0  0  0  0  0  0
    1.5000    0.0000    0.0000 N   0  0  0  0  0  0  0  0  0  0  0  0
    0.7500    1.2990    0.0000 C   0  0  0  0  0  0  0  0  0  0  0  0
   -0.7500    1.2990    0.0000 C   0  0  0  0  0  0  0  0  0  0  0  0
   -1.5000    0.0000    0.0000 C   0  0  0  0  0  0  0  0  0  0  0  0
   -0.7500   -1.2990    0.0000 C   0  0  0  0  0  0  0  0  0  0  0  0
   -1.5000   -2.5981    0.0000 N   0  0  0  0  0  0  0  0  0  0  0  0
   -2.9918   -5.3529    0.0000 S   0  0  0  0  0  0  0  0  0  0  0  0
  1  2  1  0
  2  3  2  0
  3  4  1  0
  4  5  1  0
  5  6  2  0
  6  7  1  0
  7  8  2  0
  8  9  1  0
  9 10  2  0
  4 11  2  0
 11 12  1  0
 12 13  2  0
 13 14  1  0
 14 15  2  0
 15 16  1  0
 16 17  2  0
 17 18  1  0
 18 19  2  0
 19 20  1  0
 20 21  2  0
 11 22  1  0
 22  2  1  0
 10  5  1  0
 21 12  1  0
 20 15  1  0
M  END
>  <Compound_ID>  (660) 
CHEMBL181361

>  <Molecule Name>  (660) 
GW693481X

>  <Molecular Weight>  (660) 
305.37

>  <AlogP>  (660) 
3.4

>  <Smiles>  (660) 
Nc1nc(-c2ccccn2)c(-c2ccc3ncccc3n2)s1

>  <Standard Type>  (660) 
Inhibition

>  <Standard Relation>  (660) 
'='

>  <Standard Units>  (660) 
%

>  <Standard Value>  (660) 
4.86

>  <Assay ChEMBL ID>  (660) 
CHEMBL1962241

>  <Assay Description>  (660) 
GSK_PKIS: ALK mean inhibition at 1 uM [Nanosyn]

>  <BAO Format ID>  (660) 
BAO_0000357

>  <BAO Label>  (660) 
single protein format

>  <Assay Organism>  (660) 
None

>  <Target ChEMBL ID>  (660) 
CHEMBL4247

>  <Target Name>  (660) 
ALK tyrosine kinase receptor

>  <Target Organism>  (660) 
Homo sapiens

>  <Target Type>  (660) 
SINGLE PROTEIN

>  <Document ChEMBL ID>  (660) 
CHEMBL1961873

>  <Source Description>  (660) 
GSK Published Kinase Inhibitor Set

>  <Document Journal>  (660) 
nan

>  <Document Year>  (660) 
nan

>  <Active>  (660) 
0.0

>  <bits>  (660) 
<rdkit.DataStructs.cDataStructs.ExplicitBitVect object at 0x000002422F16FF40>

>  <Group>  (660) 
G2

$$$$

     RDKit          2D

 44 49  0  0  0  0  0  0  0  0999 V2000
  -10.2119    2.7029    0.0000 C   0  0  0  0  0  0  0  0  0  0  0  0
   -9.9514    1.2257    0.0000 C   0  0  0  0  0  0  0  0  0  0  0  0
   -8.5419    0.7127    0.0000 C   0  0  0  0  0  0  0  0  0  0  0  0
   -8.2814   -0.7645    0.0000 C   0  0  0  0  0  0  0  0  0  0  0  0
   -9.4305   -1.7287    0.0000 C   0  0  0  0  0  0  0  0  0  0  0  0
   -9.1700   -3.2059    0.0000 N   0  0  0  0  0  0  0  0  0  0  0  0
   -7.7605   -3.7189    0.0000 C   0  0  0  0  0  0  0  0  0  0  0  0
   -6.6114   -2.7548    0.0000 O   0  0  0  0  0  0  0  0  0  0  0  0
   -7.5000   -5.1962    0.0000 C   0  0  0  0  0  0  0  0  0  0  0  0
   -6.0000   -5.1962    0.0000 C   0  0  0  0  0  0  0  0  0  0  0  0
   -5.2500   -3.8971    0.0000 O   0  0  0  0  0  0  0  0  0  0  0  0
   -5.2500   -6.4952    0.0000 N   0  0  0  0  0  0  0  0  0  0  0  0
   -3.7500   -6.4952    0.0000 C   0  0  0  0  0  0  0  0  0  0  0  0
   -3.0000   -7.7942    0.0000 C   0  0  0  0  0  0  0  0  0  0  0  0
   -1.5000   -7.7942    0.0000 C   0  0  0  0  0  0  0  0  0  0  0  0
   -0.7500   -6.4952    0.0000 C   0  0  0  0  0  0  0  0  0  0  0  0
    0.7500   -6.4952    0.0000 N   0  0  0  0  0  0  0  0  0  0  0  0
    1.5000   -5.1962    0.0000 C   0  0  0  0  0  0  0  0  0  0  0  0
    3.0000   -5.1962    0.0000 N   0  0  0  0  0  0  0  0  0  0  0  0
    3.7500   -3.8971    0.0000 C   0  0  0  0  0  0  0  0  0  0  0  0
    3.0000   -2.5981    0.0000 C   0  0  0  0  0  0  0  0  0  0  0  0
    3.7500   -1.2990    0.0000 F   0  0  0  0  0  0  0  0  0  0  0  0
    1.5000   -2.5981    0.0000 C   0  0  0  0  0  0  0  0  0  0  0  0
    0.7500   -1.2990    0.0000 C   0  0  0  0  0  0  0  0  0  0  0  0
    1.5000    0.0000    0.0000 C   0  0  0  0  0  0  0  0  0  0  0  0
    0.7500    1.2990    0.0000 C   0  0  0  0  0  0  0  0  0  0  0  0
    1.5000    2.5981    0.0000 F   0  0  0  0  0  0  0  0  0  0  0  0
   -0.7500    1.2990    0.0000 C   0  0  0  0  0  0  0  0  0  0  0  0
   -1.7537    2.4138    0.0000 N   0  0  0  0  0  0  0  0  0  0  0  0
   -3.1240    1.8037    0.0000 C   0  0  0  0  0  0  0  0  0  0  0  0
   -4.4231    2.5537    0.0000 C   0  0  0  0  0  0  0  0  0  0  0  0
   -2.9672    0.3119    0.0000 N   0  0  0  0  0  0  0  0  0  0  0  0
   -4.0819   -0.6918    0.0000 C   0  0  0  0  0  0  0  0  0  0  0  0
   -5.5085   -0.2283    0.0000 C   0  0  0  0  0  0  0  0  0  0  0  0
   -3.7701   -2.1590    0.0000 C   0  0  0  0  0  0  0  0  0  0  0  0
   -1.5000    0.0000    0.0000 C   0  0  0  0  0  0  0  0  0  0  0  0
   -0.7500   -1.2990    0.0000 C   0  0  0  0  0  0  0  0  0  0  0  0
    0.7500   -3.8971    0.0000 N   0  0  0  0  0  0  0  0  0  0  0  0
   -1.5000   -5.1962    0.0000 C   0  0  0  0  0  0  0  0  0  0  0  0
   -3.0000   -5.1962    0.0000 C   0  0  0  0  0  0  0  0  0  0  0  0
   -8.9095   -5.7092    0.0000 C   0  0  0  0  0  0  0  0  0  0  0  0
   -7.7605   -6.6734    0.0000 C   0  0  0  0  0  0  0  0  0  0  0  0
  -10.8400   -1.2157    0.0000 C   0  0  0  0  0  0  0  0  0  0  0  0
  -11.1005    0.2615    0.0000 C   0  0  0  0  0  0  0  0  0  0  0  0
  1  2  1  0
  2  3  2  0
  3  4  1  0
  4  5  2  0
  5  6  1  0
  6  7  1  0
  7  8  2  0
  7  9  1  0
  9 10  1  0
 10 11  2  0
 10 12  1  0
 12 13  1  0
 13 14  2  0
 14 15  1  0
 15 16  2  0
 16 17  1  0
 17 18  1  0
 18 19  2  0
 19 20  1  0
 20 21  2  0
 21 22  1  0
 21 23  1  0
 23 24  1  0
 24 25  2  0
 25 26  1  0
 26 27  1  0
 26 28  2  0
 28 29  1  0
 29 30  2  0
 30 31  1  0
 30 32  1  0
 32 33  1  0
 33 34  1  0
 33 35  1  0
 32 36  1  0
 36 37  2  0
 23 38  2  0
 16 39  1  0
 39 40  2  0
  9 41  1  0
 41 42  1  0
  5 43  1  0
 43 44  2  0
 44  2  1  0
 42  9  1  0
 40 13  1  0
 38 18  1  0
 37 24  1  0
 36 28  1  0
M  END
>  <Compound_ID>  (661) 
CHEMBL4445335

>  <Molecule Name>  (661) 
nan

>  <Molecular Weight>  (661) 
595.65

>  <AlogP>  (661) 
7.07

>  <Smiles>  (661) 
Cc1ccc(NC(=O)C2(C(=O)Nc3ccc(Nc4ncc(F)c(-c5cc(F)c6nc(C)n(C(C)C)c6c5)n4)cc3)CC2)cc1

>  <Standard Type>  (661) 
Inhibition

>  <Standard Relation>  (661) 
'='

>  <Standard Units>  (661) 
%

>  <Standard Value>  (661) 
18.0

>  <Assay ChEMBL ID>  (661) 
CHEMBL4407927

>  <Assay Description>  (661) 
Inhibition of recombinant human ALK (1058 to end residues) at 1 uM using KKKSPGEYVNIEF as substrate incubated for 40 mins in presence of [gamma-33P]-ATP by scintillation counting method relative to control

>  <BAO Format ID>  (661) 
BAO_0000357

>  <BAO Label>  (661) 
single protein format

>  <Assay Organism>  (661) 
Homo sapiens

>  <Target ChEMBL ID>  (661) 
CHEMBL4247

>  <Target Name>  (661) 
ALK tyrosine kinase receptor

>  <Target Organism>  (661) 
Homo sapiens

>  <Target Type>  (661) 
SINGLE PROTEIN

>  <Document ChEMBL ID>  (661) 
CHEMBL4406821

>  <Source Description>  (661) 
Scientific Literature

>  <Document Journal>  (661) 
Eur J Med Chem

>  <Document Year>  (661) 
2019.0

>  <Active>  (661) 
0.0

>  <bits>  (661) 
<rdkit.DataStructs.cDataStructs.ExplicitBitVect object at 0x000002422F16DBD0>

>  <Group>  (661) 
G2

$$$$

     RDKit          2D

 26 29  0  0  0  0  0  0  0  0999 V2000
    6.7500   -6.4952    0.0000 C   0  0  0  0  0  0  0  0  0  0  0  0
    6.0000   -5.1962    0.0000 S   0  0  0  0  0  0  0  0  0  0  0  0
    4.7010   -5.9462    0.0000 O   0  0  0  0  0  0  0  0  0  0  0  0
    7.2990   -4.4462    0.0000 O   0  0  0  0  0  0  0  0  0  0  0  0
    5.2500   -3.8971    0.0000 N   0  0  0  0  0  0  0  0  0  0  0  0
    3.7500   -3.8971    0.0000 C   0  0  0  0  0  0  0  0  0  0  0  0
    3.0000   -5.1962    0.0000 C   0  0  0  0  0  0  0  0  0  0  0  0
    1.5000   -5.1962    0.0000 C   0  0  0  0  0  0  0  0  0  0  0  0
    0.7500   -3.8971    0.0000 C   0  0  0  0  0  0  0  0  0  0  0  0
    1.5000   -2.5981    0.0000 C   0  0  0  0  0  0  0  0  0  0  0  0
    0.7500   -1.2990    0.0000 C   0  0  0  0  0  0  0  0  0  0  0  0
    1.5000    0.0000    0.0000 C   0  0  0  0  0  0  0  0  0  0  0  0
    0.7500    1.2990    0.0000 C   0  0  0  0  0  0  0  0  0  0  0  0
   -0.7500    1.2990    0.0000 C   0  0  0  0  0  0  0  0  0  0  0  0
   -1.7537    2.4138    0.0000 C   0  0  0  0  0  0  0  0  0  0  0  0
   -1.4418    3.8810    0.0000 N   0  0  0  0  0  0  0  0  0  0  0  0
   -2.5565    4.8847    0.0000 C   0  0  0  0  0  0  0  0  0  0  0  0
   -3.9831    4.4211    0.0000 O   0  0  0  0  0  0  0  0  0  0  0  0
   -2.2447    6.3519    0.0000 C   0  0  0  0  0  0  0  0  0  0  0  0
   -2.7082    7.7785    0.0000 C   0  0  0  0  0  0  0  0  0  0  0  0
   -1.2410    7.4666    0.0000 C   0  0  0  0  0  0  0  0  0  0  0  0
   -3.1240    1.8037    0.0000 N   0  0  0  0  0  0  0  0  0  0  0  0
   -2.9672    0.3119    0.0000 N   0  0  0  0  0  0  0  0  0  0  0  0
   -1.5000    0.0000    0.0000 C   0  0  0  0  0  0  0  0  0  0  0  0
   -0.7500   -1.2990    0.0000 C   0  0  0  0  0  0  0  0  0  0  0  0
    3.0000   -2.5981    0.0000 C   0  0  0  0  0  0  0  0  0  0  0  0
  1  2  1  0
  2  3  2  0
  2  4  2  0
  2  5  1  0
  5  6  1  0
  6  7  2  0
  7  8  1  0
  8  9  2  0
  9 10  1  0
 10 11  1  0
 11 12  2  0
 12 13  1  0
 13 14  2  0
 14 15  1  0
 15 16  1  0
 16 17  1  0
 17 18  2  0
 17 19  1  0
 19 20  1  0
 20 21  1  0
 15 22  2  0
 22 23  1  0
 23 24  1  0
 24 25  2  0
 10 26  2  0
 26  6  1  0
 25 11  1  0
 24 14  1  0
 21 19  1  0
M  END
>  <Compound_ID>  (662) 
CHEMBL103080

>  <Molecule Name>  (662) 
nan

>  <Molecular Weight>  (662) 
370.43

>  <AlogP>  (662) 
2.95

>  <Smiles>  (662) 
CS(=O)(=O)Nc1cccc(-c2ccc3c(NC(=O)C4CC4)n[nH]c3c2)c1

>  <Standard Type>  (662) 
Inhibition

>  <Standard Relation>  (662) 
'='

>  <Standard Units>  (662) 
%

>  <Standard Value>  (662) 
0.61

>  <Assay ChEMBL ID>  (662) 
CHEMBL1962240

>  <Assay Description>  (662) 
GSK_PKIS: ALK mean inhibition at 0.1 uM [Nanosyn]

>  <BAO Format ID>  (662) 
BAO_0000357

>  <BAO Label>  (662) 
single protein format

>  <Assay Organism>  (662) 
None

>  <Target ChEMBL ID>  (662) 
CHEMBL4247

>  <Target Name>  (662) 
ALK tyrosine kinase receptor

>  <Target Organism>  (662) 
Homo sapiens

>  <Target Type>  (662) 
SINGLE PROTEIN

>  <Document ChEMBL ID>  (662) 
CHEMBL1961873

>  <Source Description>  (662) 
GSK Published Kinase Inhibitor Set

>  <Document Journal>  (662) 
nan

>  <Document Year>  (662) 
nan

>  <Active>  (662) 
0.0

>  <bits>  (662) 
<rdkit.DataStructs.cDataStructs.ExplicitBitVect object at 0x000002422F16D9A0>

>  <Group>  (662) 
G2

$$$$

     RDKit          2D

 34 38  0  0  0  0  0  0  0  0999 V2000
    8.8614   -1.4557    0.0000 O   0  0  0  0  0  0  0  0  0  0  0  0
   10.0105   -2.4199    0.0000 C   0  0  0  0  0  0  0  0  0  0  0  0
   11.4200   -1.9069    0.0000 N   0  0  0  0  0  0  0  0  0  0  0  0
   11.6805   -0.4297    0.0000 C   0  0  0  0  0  0  0  0  0  0  0  0
   13.0900    0.0834    0.0000 C   0  0  0  0  0  0  0  0  0  0  0  0
   13.3505    1.5606    0.0000 C   0  0  0  0  0  0  0  0  0  0  0  0
   12.2014    2.5248    0.0000 C   0  0  0  0  0  0  0  0  0  0  0  0
   12.4619    4.0020    0.0000 F   0  0  0  0  0  0  0  0  0  0  0  0
   10.7919    2.0117    0.0000 C   0  0  0  0  0  0  0  0  0  0  0  0
   10.5314    0.5345    0.0000 C   0  0  0  0  0  0  0  0  0  0  0  0
    9.7500   -3.8971    0.0000 C   0  0  0  0  0  0  0  0  0  0  0  0
    8.2500   -3.8971    0.0000 C   0  0  0  0  0  0  0  0  0  0  0  0
    7.5000   -5.1962    0.0000 O   0  0  0  0  0  0  0  0  0  0  0  0
    7.5000   -2.5981    0.0000 N   0  0  0  0  0  0  0  0  0  0  0  0
    6.0000   -2.5981    0.0000 C   0  0  0  0  0  0  0  0  0  0  0  0
    5.2500   -1.2990    0.0000 C   0  0  0  0  0  0  0  0  0  0  0  0
    3.7500   -1.2990    0.0000 C   0  0  0  0  0  0  0  0  0  0  0  0
    3.0000   -2.5981    0.0000 C   0  0  0  0  0  0  0  0  0  0  0  0
    1.5000   -2.5981    0.0000 O   0  0  0  0  0  0  0  0  0  0  0  0
    0.7500   -1.2990    0.0000 C   0  0  0  0  0  0  0  0  0  0  0  0
    1.5000    0.0000    0.0000 C   0  0  0  0  0  0  0  0  0  0  0  0
    0.7500    1.2990    0.0000 C   0  0  0  0  0  0  0  0  0  0  0  0
   -0.7500    1.2990    0.0000 N   0  0  0  0  0  0  0  0  0  0  0  0
   -1.5000    0.0000    0.0000 C   0  0  0  0  0  0  0  0  0  0  0  0
   -2.9672   -0.3119    0.0000 N   0  0  0  0  0  0  0  0  0  0  0  0
   -3.1240   -1.8037    0.0000 C   0  0  0  0  0  0  0  0  0  0  0  0
   -4.4231   -2.5537    0.0000 O   0  0  0  0  0  0  0  0  0  0  0  0
   -1.7537   -2.4138    0.0000 N   0  0  0  0  0  0  0  0  0  0  0  0
   -0.7500   -1.2990    0.0000 C   0  0  0  0  0  0  0  0  0  0  0  0
    3.7500   -3.8971    0.0000 C   0  0  0  0  0  0  0  0  0  0  0  0
    3.0000   -5.1962    0.0000 F   0  0  0  0  0  0  0  0  0  0  0  0
    5.2500   -3.8971    0.0000 C   0  0  0  0  0  0  0  0  0  0  0  0
   11.1595   -4.4101    0.0000 C   0  0  0  0  0  0  0  0  0  0  0  0
   10.0105   -5.3743    0.0000 C   0  0  0  0  0  0  0  0  0  0  0  0
  1  2  2  0
  2  3  1  0
  3  4  1  0
  4  5  2  0
  5  6  1  0
  6  7  2  0
  7  8  1  0
  7  9  1  0
  9 10  2  0
  2 11  1  0
 11 12  1  0
 12 13  2  0
 12 14  1  0
 14 15  1  0
 15 16  2  0
 16 17  1  0
 17 18  2  0
 18 19  1  0
 19 20  1  0
 20 21  2  0
 21 22  1  0
 22 23  2  0
 23 24  1  0
 24 25  1  0
 25 26  1  0
 26 27  2  0
 26 28  1  0
 28 29  1  0
 18 30  1  0
 30 31  1  0
 30 32  2  0
 11 33  1  0
 33 34  1  0
 10  4  1  0
 34 11  1  0
 32 15  1  0
 29 20  1  0
 29 24  2  0
M  END
>  <Compound_ID>  (663) 
CHEMBL3360678

>  <Molecule Name>  (663) 
nan

>  <Molecular Weight>  (663) 
465.42

>  <AlogP>  (663) 
3.68

>  <Smiles>  (663) 
O=C(Nc1ccc(F)cc1)C1(C(=O)Nc2ccc(Oc3ccnc4[nH]c(=O)[nH]c34)c(F)c2)CC1

>  <Standard Type>  (663) 
Inhibition

>  <Standard Relation>  (663) 
'='

>  <Standard Units>  (663) 
%

>  <Standard Value>  (663) 
2.5

>  <Assay ChEMBL ID>  (663) 
CHEMBL3374153

>  <Assay Description>  (663) 
Inhibition of ALK (unknown origin) at 1 uM by ELISA method

>  <BAO Format ID>  (663) 
BAO_0000357

>  <BAO Label>  (663) 
single protein format

>  <Assay Organism>  (663) 
Homo sapiens

>  <Target ChEMBL ID>  (663) 
CHEMBL4247

>  <Target Name>  (663) 
ALK tyrosine kinase receptor

>  <Target Organism>  (663) 
Homo sapiens

>  <Target Type>  (663) 
SINGLE PROTEIN

>  <Document ChEMBL ID>  (663) 
CHEMBL3352075

>  <Source Description>  (663) 
Scientific Literature

>  <Document Journal>  (663) 
Bioorg Med Chem Lett

>  <Document Year>  (663) 
2015.0

>  <Active>  (663) 
0.0

>  <bits>  (663) 
<rdkit.DataStructs.cDataStructs.ExplicitBitVect object at 0x000002422F16E420>

>  <Group>  (663) 
G2

$$$$

     RDKit          2D

 27 30  0  0  0  0  0  0  0  0999 V2000
    3.0000    0.0000    0.0000 F   0  0  0  0  0  0  0  0  0  0  0  0
    1.5000    0.0000    0.0000 C   0  0  0  0  0  0  0  0  0  0  0  0
    0.7500   -1.2990    0.0000 C   0  0  0  0  0  0  0  0  0  0  0  0
   -0.7500   -1.2990    0.0000 C   0  0  0  0  0  0  0  0  0  0  0  0
   -1.5000    0.0000    0.0000 C   0  0  0  0  0  0  0  0  0  0  0  0
   -3.0000    0.0000    0.0000 C   0  0  0  0  0  0  0  0  0  0  0  0
   -3.8817   -1.2135    0.0000 N   0  0  0  0  0  0  0  0  0  0  0  0
   -5.3083   -0.7500    0.0000 C   0  0  0  0  0  0  0  0  0  0  0  0
   -5.3083    0.7500    0.0000 N   0  0  0  0  0  0  0  0  0  0  0  0
   -6.5218    1.6317    0.0000 C   0  0  0  0  0  0  0  0  0  0  0  0
   -6.3650    3.1235    0.0000 C   0  0  0  0  0  0  0  0  0  0  0  0
   -7.5785    4.0051    0.0000 C   0  0  0  0  0  0  0  0  0  0  0  0
   -7.4217    5.4969    0.0000 N   0  0  0  0  0  0  0  0  0  0  0  0
   -6.0514    6.1070    0.0000 C   0  0  0  0  0  0  0  0  0  0  0  0
   -5.8946    7.5988    0.0000 C   0  0  0  0  0  0  0  0  0  0  0  0
   -7.1081    8.4805    0.0000 O   0  0  0  0  0  0  0  0  0  0  0  0
   -8.4785    7.8704    0.0000 C   0  0  0  0  0  0  0  0  0  0  0  0
   -8.6353    6.3786    0.0000 C   0  0  0  0  0  0  0  0  0  0  0  0
   -3.8817    1.2135    0.0000 C   0  0  0  0  0  0  0  0  0  0  0  0
   -3.4182    2.6401    0.0000 C   0  0  0  0  0  0  0  0  0  0  0  0
   -1.9509    2.9520    0.0000 C   0  0  0  0  0  0  0  0  0  0  0  0
   -1.4874    4.3786    0.0000 C   0  0  0  0  0  0  0  0  0  0  0  0
   -2.4911    5.4933    0.0000 N   0  0  0  0  0  0  0  0  0  0  0  0
   -3.9583    5.1814    0.0000 C   0  0  0  0  0  0  0  0  0  0  0  0
   -4.4218    3.7548    0.0000 C   0  0  0  0  0  0  0  0  0  0  0  0
   -0.7500    1.2990    0.0000 C   0  0  0  0  0  0  0  0  0  0  0  0
    0.7500    1.2990    0.0000 C   0  0  0  0  0  0  0  0  0  0  0  0
  1  2  1  0
  2  3  2  0
  3  4  1  0
  4  5  2  0
  5  6  1  0
  6  7  1  0
  7  8  2  0
  8  9  1  0
  9 10  1  0
 10 11  1  0
 11 12  1  0
 12 13  1  0
 13 14  1  0
 14 15  1  0
 15 16  1  0
 16 17  1  0
 17 18  1  0
  9 19  1  0
 19 20  1  0
 20 21  2  0
 21 22  1  0
 22 23  2  0
 23 24  1  0
 24 25  2  0
  5 26  1  0
 26 27  2  0
 27  2  1  0
 19  6  2  0
 25 20  1  0
 18 13  1  0
M  END
>  <Compound_ID>  (664) 
CHEMBL14112

>  <Molecule Name>  (664) 
SB-210313

>  <Molecular Weight>  (664) 
366.44

>  <AlogP>  (664) 
3.47

>  <Smiles>  (664) 
Fc1ccc(-c2ncn(CCCN3CCOCC3)c2-c2ccncc2)cc1

>  <Standard Type>  (664) 
Inhibition

>  <Standard Relation>  (664) 
'='

>  <Standard Units>  (664) 
%

>  <Standard Value>  (664) 
1.45

>  <Assay ChEMBL ID>  (664) 
CHEMBL1962240

>  <Assay Description>  (664) 
GSK_PKIS: ALK mean inhibition at 0.1 uM [Nanosyn]

>  <BAO Format ID>  (664) 
BAO_0000357

>  <BAO Label>  (664) 
single protein format

>  <Assay Organism>  (664) 
None

>  <Target ChEMBL ID>  (664) 
CHEMBL4247

>  <Target Name>  (664) 
ALK tyrosine kinase receptor

>  <Target Organism>  (664) 
Homo sapiens

>  <Target Type>  (664) 
SINGLE PROTEIN

>  <Document ChEMBL ID>  (664) 
CHEMBL1961873

>  <Source Description>  (664) 
GSK Published Kinase Inhibitor Set

>  <Document Journal>  (664) 
nan

>  <Document Year>  (664) 
nan

>  <Active>  (664) 
0.0

>  <bits>  (664) 
<rdkit.DataStructs.cDataStructs.ExplicitBitVect object at 0x000002422F16D8C0>

>  <Group>  (664) 
G2

$$$$

     RDKit          2D

 31 34  0  0  0  0  0  0  0  0999 V2000
   -2.5981   -8.1073    0.0000 C   0  0  0  0  0  0  0  0  0  0  0  0
   -1.2990   -7.3573    0.0000 O   0  0  0  0  0  0  0  0  0  0  0  0
   -1.2990   -5.8573    0.0000 C   0  0  0  0  0  0  0  0  0  0  0  0
   -2.5981   -5.1073    0.0000 O   0  0  0  0  0  0  0  0  0  0  0  0
   -0.0000   -5.1073    0.0000 N   0  0  0  0  0  0  0  0  0  0  0  0
   -0.0000   -3.6073    0.0000 C   0  0  0  0  0  0  0  0  0  0  0  0
    1.2135   -2.7256    0.0000 N   0  0  0  0  0  0  0  0  0  0  0  0
    0.7500   -1.2990    0.0000 C   0  0  0  0  0  0  0  0  0  0  0  0
    1.5000    0.0000    0.0000 C   0  0  0  0  0  0  0  0  0  0  0  0
    0.7500    1.2990    0.0000 C   0  0  0  0  0  0  0  0  0  0  0  0
    1.5000    2.5981    0.0000 O   0  0  0  0  0  0  0  0  0  0  0  0
    3.0000    2.5981    0.0000 C   0  0  0  0  0  0  0  0  0  0  0  0
    3.7500    1.2990    0.0000 C   0  0  0  0  0  0  0  0  0  0  0  0
    5.2500    1.2990    0.0000 C   0  0  0  0  0  0  0  0  0  0  0  0
    6.0000    2.5981    0.0000 C   0  0  0  0  0  0  0  0  0  0  0  0
    7.5000    2.5981    0.0000 N   0  0  0  0  0  0  0  0  0  0  0  0
    8.2500    1.2990    0.0000 C   0  0  0  0  0  0  0  0  0  0  0  0
    7.5000   -0.0000    0.0000 O   0  0  0  0  0  0  0  0  0  0  0  0
    9.7500    1.2990    0.0000 N   0  0  0  0  0  0  0  0  0  0  0  0
   10.5000   -0.0000    0.0000 C   0  0  0  0  0  0  0  0  0  0  0  0
    9.7500   -1.2990    0.0000 C   0  0  0  0  0  0  0  0  0  0  0  0
   10.5000   -2.5981    0.0000 C   0  0  0  0  0  0  0  0  0  0  0  0
   12.0000   -2.5981    0.0000 C   0  0  0  0  0  0  0  0  0  0  0  0
   12.7500   -1.2990    0.0000 C   0  0  0  0  0  0  0  0  0  0  0  0
   12.0000   -0.0000    0.0000 C   0  0  0  0  0  0  0  0  0  0  0  0
    5.2500    3.8971    0.0000 C   0  0  0  0  0  0  0  0  0  0  0  0
    3.7500    3.8971    0.0000 C   0  0  0  0  0  0  0  0  0  0  0  0
   -0.7500    1.2990    0.0000 C   0  0  0  0  0  0  0  0  0  0  0  0
   -1.5000    0.0000    0.0000 C   0  0  0  0  0  0  0  0  0  0  0  0
   -0.7500   -1.2990    0.0000 C   0  0  0  0  0  0  0  0  0  0  0  0
   -1.2135   -2.7256    0.0000 N   0  0  0  0  0  0  0  0  0  0  0  0
  1  2  1  0
  2  3  1  0
  3  4  2  0
  3  5  1  0
  5  6  1  0
  6  7  2  0
  7  8  1  0
  8  9  2  0
  9 10  1  0
 10 11  1  0
 11 12  1  0
 12 13  2  0
 13 14  1  0
 14 15  2  0
 15 16  1  0
 16 17  1  0
 17 18  2  0
 17 19  1  0
 19 20  1  0
 20 21  2  0
 21 22  1  0
 22 23  2  0
 23 24  1  0
 24 25  2  0
 15 26  1  0
 26 27  2  0
 10 28  2  0
 28 29  1  0
 29 30  2  0
 30 31  1  0
 31  6  1  0
 30  8  1  0
 27 12  1  0
 25 20  1  0
M  END
>  <Compound_ID>  (665) 
CHEMBL1909371

>  <Molecule Name>  (665) 
GW694590A

>  <Molecular Weight>  (665) 
453.89

>  <AlogP>  (665) 
5.18

>  <Smiles>  (665) 
COC(=O)Nc1nc2cc(Oc3ccc(NC(=O)Nc4ccccc4)cc3)ccc2[nH]1

>  <Standard Type>  (665) 
Inhibition

>  <Standard Relation>  (665) 
'='

>  <Standard Units>  (665) 
%

>  <Standard Value>  (665) 
1.19

>  <Assay ChEMBL ID>  (665) 
CHEMBL1962240

>  <Assay Description>  (665) 
GSK_PKIS: ALK mean inhibition at 0.1 uM [Nanosyn]

>  <BAO Format ID>  (665) 
BAO_0000357

>  <BAO Label>  (665) 
single protein format

>  <Assay Organism>  (665) 
None

>  <Target ChEMBL ID>  (665) 
CHEMBL4247

>  <Target Name>  (665) 
ALK tyrosine kinase receptor

>  <Target Organism>  (665) 
Homo sapiens

>  <Target Type>  (665) 
SINGLE PROTEIN

>  <Document ChEMBL ID>  (665) 
CHEMBL1961873

>  <Source Description>  (665) 
GSK Published Kinase Inhibitor Set

>  <Document Journal>  (665) 
nan

>  <Document Year>  (665) 
nan

>  <Active>  (665) 
0.0

>  <bits>  (665) 
<rdkit.DataStructs.cDataStructs.ExplicitBitVect object at 0x000002422F16E6C0>

>  <Group>  (665) 
G2

$$$$

     RDKit          2D

 21 22  0  0  0  0  0  0  0  0999 V2000
    5.2500   -1.2990    0.0000 C   0  0  0  0  0  0  0  0  0  0  0  0
    3.7500   -1.2990    0.0000 O   0  0  0  0  0  0  0  0  0  0  0  0
    3.0000    0.0000    0.0000 C   0  0  0  0  0  0  0  0  0  0  0  0
    3.7500    1.2990    0.0000 O   0  0  0  0  0  0  0  0  0  0  0  0
    1.5000    0.0000    0.0000 C   0  0  0  0  0  0  0  0  0  0  0  0
    0.7500   -1.2990    0.0000 C   0  0  0  0  0  0  0  0  0  0  0  0
   -0.7500   -1.2990    0.0000 N   0  0  0  0  0  0  0  0  0  0  0  0
   -1.5000    0.0000    0.0000 C   0  0  0  0  0  0  0  0  0  0  0  0
   -0.7500    1.2990    0.0000 C   0  0  0  0  0  0  0  0  0  0  0  0
   -1.5000    2.5981    0.0000 C   0  0  0  0  0  0  0  0  0  0  0  0
   -0.7500    3.8971    0.0000 C   0  0  0  0  0  0  0  0  0  0  0  0
   -1.5000    5.1962    0.0000 C   0  0  0  0  0  0  0  0  0  0  0  0
   -0.7500    6.4952    0.0000 C   0  0  0  0  0  0  0  0  0  0  0  0
    0.7500    6.4952    0.0000 C   0  0  0  0  0  0  0  0  0  0  0  0
   -1.5000    7.7942    0.0000 C   0  0  0  0  0  0  0  0  0  0  0  0
   -3.0000    7.7942    0.0000 C   0  0  0  0  0  0  0  0  0  0  0  0
   -3.7500    9.0933    0.0000 O   0  0  0  0  0  0  0  0  0  0  0  0
   -3.7500    6.4952    0.0000 C   0  0  0  0  0  0  0  0  0  0  0  0
   -3.0000    5.1962    0.0000 C   0  0  0  0  0  0  0  0  0  0  0  0
   -3.7500    3.8971    0.0000 C   0  0  0  0  0  0  0  0  0  0  0  0
    0.7500    1.2990    0.0000 C   0  0  0  0  0  0  0  0  0  0  0  0
  1  2  1  0
  2  3  1  0
  3  4  2  0
  3  5  1  0
  5  6  2  0
  6  7  1  0
  7  8  2  0
  8  9  1  0
  9 10  1  0
 10 11  2  0
 11 12  1  0
 12 13  2  0
 13 14  1  0
 13 15  1  0
 15 16  2  0
 16 17  1  0
 16 18  1  0
 18 19  2  0
 19 20  1  0
  9 21  2  0
 21  5  1  0
 19 12  1  0
M  END
>  <Compound_ID>  (666) 
CHEMBL220243

>  <Molecule Name>  (666) 
GW406731X

>  <Molecular Weight>  (666) 
283.33

>  <AlogP>  (666) 
3.36

>  <Smiles>  (666) 
COC(=O)c1cncc(/C=C/c2c(C)cc(O)cc2C)c1

>  <Standard Type>  (666) 
Inhibition

>  <Standard Relation>  (666) 
'='

>  <Standard Units>  (666) 
%

>  <Standard Value>  (666) 
4.4

>  <Assay ChEMBL ID>  (666) 
CHEMBL1962241

>  <Assay Description>  (666) 
GSK_PKIS: ALK mean inhibition at 1 uM [Nanosyn]

>  <BAO Format ID>  (666) 
BAO_0000357

>  <BAO Label>  (666) 
single protein format

>  <Assay Organism>  (666) 
None

>  <Target ChEMBL ID>  (666) 
CHEMBL4247

>  <Target Name>  (666) 
ALK tyrosine kinase receptor

>  <Target Organism>  (666) 
Homo sapiens

>  <Target Type>  (666) 
SINGLE PROTEIN

>  <Document ChEMBL ID>  (666) 
CHEMBL1961873

>  <Source Description>  (666) 
GSK Published Kinase Inhibitor Set

>  <Document Journal>  (666) 
nan

>  <Document Year>  (666) 
nan

>  <Active>  (666) 
0.0

>  <bits>  (666) 
<rdkit.DataStructs.cDataStructs.ExplicitBitVect object at 0x000002422F16E110>

>  <Group>  (666) 
G2

$$$$

     RDKit          2D

 25 28  0  0  0  0  0  0  0  0999 V2000
   -9.6388   -6.1973    0.0000 N   0  0  0  0  0  0  0  0  0  0  0  0
   -8.8888   -4.8983    0.0000 S   0  0  0  0  0  0  0  0  0  0  0  0
  -10.1878   -4.1483    0.0000 O   0  0  0  0  0  0  0  0  0  0  0  0
   -7.5897   -5.6483    0.0000 O   0  0  0  0  0  0  0  0  0  0  0  0
   -8.1388   -3.5992    0.0000 C   0  0  0  0  0  0  0  0  0  0  0  0
   -8.8888   -2.3002    0.0000 C   0  0  0  0  0  0  0  0  0  0  0  0
   -8.1388   -1.0012    0.0000 C   0  0  0  0  0  0  0  0  0  0  0  0
   -6.6388   -1.0012    0.0000 C   0  0  0  0  0  0  0  0  0  0  0  0
   -5.8888    0.2979    0.0000 N   0  0  0  0  0  0  0  0  0  0  0  0
   -4.3888    0.2979    0.0000 C   0  0  0  0  0  0  0  0  0  0  0  0
   -3.6388    1.5969    0.0000 C   0  0  0  0  0  0  0  0  0  0  0  0
   -4.2489    2.9672    0.0000 C   0  0  0  0  0  0  0  0  0  0  0  0
   -5.7161    3.2791    0.0000 O   0  0  0  0  0  0  0  0  0  0  0  0
   -3.1342    3.9709    0.0000 N   0  0  0  0  0  0  0  0  0  0  0  0
   -1.8351    3.2209    0.0000 C   0  0  0  0  0  0  0  0  0  0  0  0
   -0.4086    3.6844    0.0000 C   0  0  0  0  0  0  0  0  0  0  0  0
    0.7062    2.6807    0.0000 C   0  0  0  0  0  0  0  0  0  0  0  0
    0.3943    1.2135    0.0000 C   0  0  0  0  0  0  0  0  0  0  0  0
    1.2760    0.0000    0.0000 N   0  0  0  0  0  0  0  0  0  0  0  0
    0.3943   -1.2135    0.0000 C   0  0  0  0  0  0  0  0  0  0  0  0
   -1.0323   -0.7500    0.0000 S   0  0  0  0  0  0  0  0  0  0  0  0
   -1.0323    0.7500    0.0000 C   0  0  0  0  0  0  0  0  0  0  0  0
   -2.1470    1.7537    0.0000 C   0  0  0  0  0  0  0  0  0  0  0  0
   -5.8888   -2.3002    0.0000 C   0  0  0  0  0  0  0  0  0  0  0  0
   -6.6388   -3.5992    0.0000 C   0  0  0  0  0  0  0  0  0  0  0  0
  1  2  1  0
  2  3  2  0
  2  4  2  0
  2  5  1  0
  5  6  2  0
  6  7  1  0
  7  8  2  0
  8  9  1  0
  9 10  1  0
 10 11  2  0
 11 12  1  0
 12 13  2  0
 12 14  1  0
 14 15  1  0
 15 16  2  0
 16 17  1  0
 17 18  2  0
 18 19  1  0
 19 20  2  0
 20 21  1  0
 21 22  1  0
 22 23  2  0
  8 24  1  0
 24 25  2  0
 25  5  1  0
 23 11  1  0
 23 15  1  0
 22 18  1  0
M  END
>  <Compound_ID>  (667) 
CHEMBL271595

>  <Molecule Name>  (667) 
GW297361X

>  <Molecular Weight>  (667) 
372.43

>  <AlogP>  (667) 
2.35

>  <Smiles>  (667) 
NS(=O)(=O)c1ccc(N/C=C2\C(=O)Nc3ccc4ncsc4c32)cc1

>  <Standard Type>  (667) 
Inhibition

>  <Standard Relation>  (667) 
'='

>  <Standard Units>  (667) 
%

>  <Standard Value>  (667) 
15.06

>  <Assay ChEMBL ID>  (667) 
CHEMBL1962241

>  <Assay Description>  (667) 
GSK_PKIS: ALK mean inhibition at 1 uM [Nanosyn]

>  <BAO Format ID>  (667) 
BAO_0000357

>  <BAO Label>  (667) 
single protein format

>  <Assay Organism>  (667) 
None

>  <Target ChEMBL ID>  (667) 
CHEMBL4247

>  <Target Name>  (667) 
ALK tyrosine kinase receptor

>  <Target Organism>  (667) 
Homo sapiens

>  <Target Type>  (667) 
SINGLE PROTEIN

>  <Document ChEMBL ID>  (667) 
CHEMBL1961873

>  <Source Description>  (667) 
GSK Published Kinase Inhibitor Set

>  <Document Journal>  (667) 
nan

>  <Document Year>  (667) 
nan

>  <Active>  (667) 
0.0

>  <bits>  (667) 
<rdkit.DataStructs.cDataStructs.ExplicitBitVect object at 0x000002422F16FD10>

>  <Group>  (667) 
G2

$$$$

     RDKit          2D

 40 43  0  0  0  0  0  0  0  0999 V2000
    0.7500   -3.8971    0.0000 C   0  0  0  0  0  0  0  0  0  0  0  0
    1.5000   -2.5981    0.0000 N   0  0  0  0  0  0  0  0  0  0  0  0
    0.7500   -1.2990    0.0000 C   0  0  0  0  0  0  0  0  0  0  0  0
    1.5000    0.0000    0.0000 C   0  0  0  0  0  0  0  0  0  0  0  0
    0.7500    1.2990    0.0000 C   0  0  0  0  0  0  0  0  0  0  0  0
   -0.7500    1.2990    0.0000 C   0  0  0  0  0  0  0  0  0  0  0  0
   -1.5000    2.5981    0.0000 N   0  0  0  0  0  0  0  0  0  0  0  0
   -0.7500    3.8971    0.0000 C   0  0  0  0  0  0  0  0  0  0  0  0
    0.7500    3.8971    0.0000 O   0  0  0  0  0  0  0  0  0  0  0  0
   -1.5000    5.1962    0.0000 N   0  0  0  0  0  0  0  0  0  0  0  0
   -0.7500    6.4952    0.0000 C   0  0  0  0  0  0  0  0  0  0  0  0
    0.7500    6.4952    0.0000 C   0  0  0  0  0  0  0  0  0  0  0  0
    1.5000    7.7942    0.0000 C   0  0  0  0  0  0  0  0  0  0  0  0
    0.7500    9.0933    0.0000 C   0  0  0  0  0  0  0  0  0  0  0  0
    1.5000   10.3923    0.0000 O   0  0  0  0  0  0  0  0  0  0  0  0
    3.0000   10.3923    0.0000 C   0  0  0  0  0  0  0  0  0  0  0  0
    4.5000   10.3923    0.0000 F   0  0  0  0  0  0  0  0  0  0  0  0
    3.0000   11.8923    0.0000 F   0  0  0  0  0  0  0  0  0  0  0  0
    3.0000    8.8923    0.0000 F   0  0  0  0  0  0  0  0  0  0  0  0
   -0.7500    9.0933    0.0000 C   0  0  0  0  0  0  0  0  0  0  0  0
   -1.5000    7.7942    0.0000 C   0  0  0  0  0  0  0  0  0  0  0  0
   -1.5000    0.0000    0.0000 C   0  0  0  0  0  0  0  0  0  0  0  0
   -0.7500   -1.2990    0.0000 C   0  0  0  0  0  0  0  0  0  0  0  0
    3.0000   -2.5981    0.0000 C   0  0  0  0  0  0  0  0  0  0  0  0
    3.7500   -3.8971    0.0000 C   0  0  0  0  0  0  0  0  0  0  0  0
    5.2500   -3.8971    0.0000 C   0  0  0  0  0  0  0  0  0  0  0  0
    6.0000   -2.5981    0.0000 N   0  0  0  0  0  0  0  0  0  0  0  0
    5.2500   -1.2990    0.0000 C   0  0  0  0  0  0  0  0  0  0  0  0
    6.0000   -0.0000    0.0000 N   0  0  0  0  0  0  0  0  0  0  0  0
    7.5000   -0.0000    0.0000 C   0  0  0  0  0  0  0  0  0  0  0  0
    8.2500   -1.2990    0.0000 C   0  0  0  0  0  0  0  0  0  0  0  0
    9.7500   -1.2990    0.0000 C   0  0  0  0  0  0  0  0  0  0  0  0
   10.5000   -0.0000    0.0000 C   0  0  0  0  0  0  0  0  0  0  0  0
    9.7500    1.2990    0.0000 C   0  0  0  0  0  0  0  0  0  0  0  0
   10.5000    2.5981    0.0000 S   0  0  0  0  0  0  0  0  0  0  0  0
   11.2500    3.8971    0.0000 N   0  0  0  0  0  0  0  0  0  0  0  0
   11.7990    1.8481    0.0000 O   0  0  0  0  0  0  0  0  0  0  0  0
    9.2010    3.3481    0.0000 O   0  0  0  0  0  0  0  0  0  0  0  0
    8.2500    1.2990    0.0000 C   0  0  0  0  0  0  0  0  0  0  0  0
    3.7500   -1.2990    0.0000 N   0  0  0  0  0  0  0  0  0  0  0  0
  1  2  1  0
  2  3  1  0
  3  4  2  0
  4  5  1  0
  5  6  2  0
  6  7  1  0
  7  8  1  0
  8  9  2  0
  8 10  1  0
 10 11  1  0
 11 12  2  0
 12 13  1  0
 13 14  2  0
 14 15  1  0
 15 16  1  0
 16 17  1  0
 16 18  1  0
 16 19  1  0
 14 20  1  0
 20 21  2  0
  6 22  1  0
 22 23  2  0
  2 24  1  0
 24 25  2  0
 25 26  1  0
 26 27  2  0
 27 28  1  0
 28 29  1  0
 29 30  1  0
 30 31  2  0
 31 32  1  0
 32 33  2  0
 33 34  1  0
 34 35  1  0
 35 36  1  0
 35 37  2  0
 35 38  2  0
 34 39  2  0
 28 40  2  0
 23  3  1  0
 40 24  1  0
 21 11  1  0
 39 30  1  0
M  END
>  <Compound_ID>  (668) 
CHEMBL188381

>  <Molecule Name>  (668) 
GW806742X

>  <Molecular Weight>  (668) 
573.56

>  <AlogP>  (668) 
5.18

>  <Smiles>  (668) 
CN(c1ccc(NC(=O)Nc2ccc(OC(F)(F)F)cc2)cc1)c1ccnc(Nc2cccc(S(N)(=O)=O)c2)n1

>  <Standard Type>  (668) 
Inhibition

>  <Standard Relation>  (668) 
'='

>  <Standard Units>  (668) 
%

>  <Standard Value>  (668) 
1.46

>  <Assay ChEMBL ID>  (668) 
CHEMBL1962240

>  <Assay Description>  (668) 
GSK_PKIS: ALK mean inhibition at 0.1 uM [Nanosyn]

>  <BAO Format ID>  (668) 
BAO_0000357

>  <BAO Label>  (668) 
single protein format

>  <Assay Organism>  (668) 
None

>  <Target ChEMBL ID>  (668) 
CHEMBL4247

>  <Target Name>  (668) 
ALK tyrosine kinase receptor

>  <Target Organism>  (668) 
Homo sapiens

>  <Target Type>  (668) 
SINGLE PROTEIN

>  <Document ChEMBL ID>  (668) 
CHEMBL1961873

>  <Source Description>  (668) 
GSK Published Kinase Inhibitor Set

>  <Document Journal>  (668) 
nan

>  <Document Year>  (668) 
nan

>  <Active>  (668) 
0.0

>  <bits>  (668) 
<rdkit.DataStructs.cDataStructs.ExplicitBitVect object at 0x000002422F16FDF0>

>  <Group>  (668) 
G2

$$$$

     RDKit          2D

 38 41  0  0  0  0  0  0  0  0999 V2000
    6.0000   -2.5981    0.0000 C   0  0  0  0  0  0  0  0  0  0  0  0
    5.2500   -1.2990    0.0000 C   0  0  0  0  0  0  0  0  0  0  0  0
    6.0000    0.0000    0.0000 O   0  0  0  0  0  0  0  0  0  0  0  0
    3.7500   -1.2990    0.0000 C   0  0  0  0  0  0  0  0  0  0  0  0
    3.0000    0.0000    0.0000 N   0  0  0  0  0  0  0  0  0  0  0  0
    1.5000    0.0000    0.0000 C   0  0  0  0  0  0  0  0  0  0  0  0
    0.7500   -1.2990    0.0000 N   0  0  0  0  0  0  0  0  0  0  0  0
   -0.7500   -1.2990    0.0000 C   0  0  0  0  0  0  0  0  0  0  0  0
   -1.5000    0.0000    0.0000 C   0  0  0  0  0  0  0  0  0  0  0  0
   -0.7500    1.2990    0.0000 C   0  0  0  0  0  0  0  0  0  0  0  0
   -1.5000    2.5981    0.0000 N   0  0  0  0  0  0  0  0  0  0  0  0
   -2.9918    2.7549    0.0000 C   0  0  0  0  0  0  0  0  0  0  0  0
   -3.3037    4.2221    0.0000 C   0  0  0  0  0  0  0  0  0  0  0  0
   -2.0046    4.9721    0.0000 N   0  0  0  0  0  0  0  0  0  0  0  0
   -0.8899    3.9684    0.0000 C   0  0  0  0  0  0  0  0  0  0  0  0
    0.5773    4.2803    0.0000 C   0  0  0  0  0  0  0  0  0  0  0  0
    1.0409    5.7068    0.0000 C   0  0  0  0  0  0  0  0  0  0  0  0
    2.5081    6.0187    0.0000 C   0  0  0  0  0  0  0  0  0  0  0  0
    2.9716    7.4453    0.0000 C   0  0  0  0  0  0  0  0  0  0  0  0
    1.9679    8.5600    0.0000 C   0  0  0  0  0  0  0  0  0  0  0  0
    0.5007    8.2481    0.0000 C   0  0  0  0  0  0  0  0  0  0  0  0
   -0.5030    9.3629    0.0000 N   0  0  0  0  0  0  0  0  0  0  0  0
   -0.0395   10.7895    0.0000 C   0  0  0  0  0  0  0  0  0  0  0  0
    1.4277   11.1013    0.0000 O   0  0  0  0  0  0  0  0  0  0  0  0
   -1.0432   11.9042    0.0000 N   0  0  0  0  0  0  0  0  0  0  0  0
   -0.5797   13.3308    0.0000 C   0  0  0  0  0  0  0  0  0  0  0  0
    0.8876   13.6426    0.0000 C   0  0  0  0  0  0  0  0  0  0  0  0
    1.3511   15.0692    0.0000 C   0  0  0  0  0  0  0  0  0  0  0  0
    0.3474   16.1839    0.0000 C   0  0  0  0  0  0  0  0  0  0  0  0
    0.8109   17.6105    0.0000 Cl  0  0  0  0  0  0  0  0  0  0  0  0
   -1.1198   15.8721    0.0000 C   0  0  0  0  0  0  0  0  0  0  0  0
   -2.1235   16.9868    0.0000 C   0  0  0  0  0  0  0  0  0  0  0  0
   -3.1272   18.1015    0.0000 F   0  0  0  0  0  0  0  0  0  0  0  0
   -3.2382   15.9831    0.0000 F   0  0  0  0  0  0  0  0  0  0  0  0
   -1.0088   17.9905    0.0000 F   0  0  0  0  0  0  0  0  0  0  0  0
   -1.5834   14.4455    0.0000 C   0  0  0  0  0  0  0  0  0  0  0  0
    0.0372    6.8216    0.0000 C   0  0  0  0  0  0  0  0  0  0  0  0
    0.7500    1.2990    0.0000 N   0  0  0  0  0  0  0  0  0  0  0  0
  2  1  1  1
  2  3  1  0
  2  4  1  0
  4  5  1  0
  5  6  1  0
  6  7  2  0
  7  8  1  0
  8  9  2  0
  9 10  1  0
 10 11  1  0
 11 12  1  0
 12 13  2  0
 13 14  1  0
 14 15  2  0
 15 16  1  0
 16 17  1  0
 17 18  2  0
 18 19  1  0
 19 20  2  0
 20 21  1  0
 21 22  1  0
 22 23  1  0
 23 24  2  0
 23 25  1  0
 25 26  1  0
 26 27  2  0
 27 28  1  0
 28 29  2  0
 29 30  1  0
 29 31  1  0
 31 32  1  0
 32 33  1  0
 32 34  1  0
 32 35  1  0
 31 36  2  0
 21 37  2  0
 10 38  2  0
 38  6  1  0
 15 11  1  0
 37 17  1  0
 36 26  1  0
M  END
>  <Compound_ID>  (669) 
CHEMBL3309549

>  <Molecule Name>  (669) 
nan

>  <Molecular Weight>  (669) 
545.95

>  <AlogP>  (669) 
5.36

>  <Smiles>  (669) 
C[C@H](O)CNc1nccc(-n2ccnc2Cc2cccc(NC(=O)Nc3ccc(Cl)c(C(F)(F)F)c3)c2)n1

>  <Standard Type>  (669) 
Inhibition

>  <Standard Relation>  (669) 
'='

>  <Standard Units>  (669) 
%

>  <Standard Value>  (669) 
4.9

>  <Assay ChEMBL ID>  (669) 
CHEMBL3363737

>  <Assay Description>  (669) 
Inhibition of ALK (unknown origin) at 10 uM

>  <BAO Format ID>  (669) 
BAO_0000357

>  <BAO Label>  (669) 
single protein format

>  <Assay Organism>  (669) 
Homo sapiens

>  <Target ChEMBL ID>  (669) 
CHEMBL4247

>  <Target Name>  (669) 
ALK tyrosine kinase receptor

>  <Target Organism>  (669) 
Homo sapiens

>  <Target Type>  (669) 
SINGLE PROTEIN

>  <Document ChEMBL ID>  (669) 
CHEMBL3351907

>  <Source Description>  (669) 
Scientific Literature

>  <Document Journal>  (669) 
Bioorg Med Chem Lett

>  <Document Year>  (669) 
2014.0

>  <Active>  (669) 
0.0

>  <bits>  (669) 
<rdkit.DataStructs.cDataStructs.ExplicitBitVect object at 0x000002422F16E960>

>  <Group>  (669) 
G2

$$$$

     RDKit          2D

 28 30  0  0  0  0  0  0  0  0999 V2000
   -3.7548   -2.1855    0.0000 C   0  0  0  0  0  0  0  0  0  0  0  0
   -2.6401   -3.1891    0.0000 C   0  0  0  0  0  0  0  0  0  0  0  0
   -1.2135   -2.7256    0.0000 N   0  0  0  0  0  0  0  0  0  0  0  0
   -0.0000   -3.6073    0.0000 C   0  0  0  0  0  0  0  0  0  0  0  0
   -0.0000   -5.1073    0.0000 C   0  0  0  0  0  0  0  0  0  0  0  0
    1.2135   -5.9890    0.0000 N   0  0  0  0  0  0  0  0  0  0  0  0
    0.7500   -7.4156    0.0000 O   0  0  0  0  0  0  0  0  0  0  0  0
   -0.7500   -7.4156    0.0000 N   0  0  0  0  0  0  0  0  0  0  0  0
   -1.2135   -5.9890    0.0000 C   0  0  0  0  0  0  0  0  0  0  0  0
   -2.6401   -5.5255    0.0000 N   0  0  0  0  0  0  0  0  0  0  0  0
    1.2135   -2.7256    0.0000 N   0  0  0  0  0  0  0  0  0  0  0  0
    0.7500   -1.2990    0.0000 C   0  0  0  0  0  0  0  0  0  0  0  0
    1.5000    0.0000    0.0000 C   0  0  0  0  0  0  0  0  0  0  0  0
    3.0000    0.0000    0.0000 C   0  0  0  0  0  0  0  0  0  0  0  0
    4.5000    0.0000    0.0000 C   0  0  0  0  0  0  0  0  0  0  0  0
    6.0000    0.0000    0.0000 C   0  0  0  0  0  0  0  0  0  0  0  0
    6.0000   -1.5000    0.0000 C   0  0  0  0  0  0  0  0  0  0  0  0
    6.0000    1.5000    0.0000 C   0  0  0  0  0  0  0  0  0  0  0  0
    7.5000    0.0000    0.0000 O   0  0  0  0  0  0  0  0  0  0  0  0
    0.7500    1.2990    0.0000 N   0  0  0  0  0  0  0  0  0  0  0  0
   -0.7500    1.2990    0.0000 C   0  0  0  0  0  0  0  0  0  0  0  0
   -1.5000    2.5981    0.0000 O   0  0  0  0  0  0  0  0  0  0  0  0
   -0.7500    3.8971    0.0000 C   0  0  0  0  0  0  0  0  0  0  0  0
   -1.5000    5.1962    0.0000 C   0  0  0  0  0  0  0  0  0  0  0  0
   -0.7500    6.4952    0.0000 N   0  0  0  0  0  0  0  0  0  0  0  0
   -1.5000    7.7942    0.0000 C   0  0  0  0  0  0  0  0  0  0  0  0
   -1.5000    0.0000    0.0000 C   0  0  0  0  0  0  0  0  0  0  0  0
   -0.7500   -1.2990    0.0000 C   0  0  0  0  0  0  0  0  0  0  0  0
  1  2  1  0
  2  3  1  0
  3  4  1  0
  4  5  1  0
  5  6  2  0
  6  7  1  0
  7  8  1  0
  8  9  2  0
  9 10  1  0
  4 11  2  0
 11 12  1  0
 12 13  2  0
 13 14  1  0
 14 15  3  0
 15 16  1  0
 16 17  1  0
 16 18  1  0
 16 19  1  0
 13 20  1  0
 20 21  2  0
 21 22  1  0
 22 23  1  0
 23 24  1  0
 24 25  1  0
 25 26  1  0
 21 27  1  0
 27 28  2  0
 28  3  1  0
  9  5  1  0
 28 12  1  0
M  END
>  <Compound_ID>  (670) 
CHEMBL1909350

>  <Molecule Name>  (670) 
GSK-949675A

>  <Molecular Weight>  (670) 
421.89

>  <AlogP>  (670) 
0.8

>  <Smiles>  (670) 
CCn1c(-c2nonc2N)nc2c(C#CC(C)(C)O)nc(OCCNC)cc21

>  <Standard Type>  (670) 
Inhibition

>  <Standard Relation>  (670) 
'='

>  <Standard Units>  (670) 
%

>  <Standard Value>  (670) 
3.58

>  <Assay ChEMBL ID>  (670) 
CHEMBL1962241

>  <Assay Description>  (670) 
GSK_PKIS: ALK mean inhibition at 1 uM [Nanosyn]

>  <BAO Format ID>  (670) 
BAO_0000357

>  <BAO Label>  (670) 
single protein format

>  <Assay Organism>  (670) 
None

>  <Target ChEMBL ID>  (670) 
CHEMBL4247

>  <Target Name>  (670) 
ALK tyrosine kinase receptor

>  <Target Organism>  (670) 
Homo sapiens

>  <Target Type>  (670) 
SINGLE PROTEIN

>  <Document ChEMBL ID>  (670) 
CHEMBL1961873

>  <Source Description>  (670) 
GSK Published Kinase Inhibitor Set

>  <Document Journal>  (670) 
nan

>  <Document Year>  (670) 
nan

>  <Active>  (670) 
0.0

>  <bits>  (670) 
<rdkit.DataStructs.cDataStructs.ExplicitBitVect object at 0x000002422F16E650>

>  <Group>  (670) 
G2

$$$$

     RDKit          2D

 26 28  0  0  0  0  0  0  0  0999 V2000
    5.2500   -1.2990    0.0000 C   0  0  0  0  0  0  0  0  0  0  0  0
    3.7500   -1.2990    0.0000 C   0  0  0  0  0  0  0  0  0  0  0  0
    3.0000   -2.5981    0.0000 C   0  0  0  0  0  0  0  0  0  0  0  0
    3.0000    0.0000    0.0000 C   0  0  0  0  0  0  0  0  0  0  0  0
    1.5000    0.0000    0.0000 C   0  0  0  0  0  0  0  0  0  0  0  0
    0.7500   -1.2990    0.0000 C   0  0  0  0  0  0  0  0  0  0  0  0
   -0.7500   -1.2990    0.0000 C   0  0  0  0  0  0  0  0  0  0  0  0
   -1.5000    0.0000    0.0000 C   0  0  0  0  0  0  0  0  0  0  0  0
   -0.7500    1.2990    0.0000 C   0  0  0  0  0  0  0  0  0  0  0  0
    0.7500    1.2990    0.0000 C   0  0  0  0  0  0  0  0  0  0  0  0
    1.2135    2.7256    0.0000 C   0  0  0  0  0  0  0  0  0  0  0  0
    2.6401    3.1891    0.0000 N   0  0  0  0  0  0  0  0  0  0  0  0
    2.9520    4.6564    0.0000 N   0  0  0  0  0  0  0  0  0  0  0  0
    4.3786    5.1199    0.0000 C   0  0  0  0  0  0  0  0  0  0  0  0
    5.4933    4.1162    0.0000 C   0  0  0  0  0  0  0  0  0  0  0  0
    6.9199    4.5797    0.0000 C   0  0  0  0  0  0  0  0  0  0  0  0
    7.2317    6.0469    0.0000 C   0  0  0  0  0  0  0  0  0  0  0  0
    8.6583    6.5105    0.0000 S   0  0  0  0  0  0  0  0  0  0  0  0
   10.0849    6.9740    0.0000 N   0  0  0  0  0  0  0  0  0  0  0  0
    9.1218    5.0839    0.0000 O   0  0  0  0  0  0  0  0  0  0  0  0
    8.1948    7.9371    0.0000 O   0  0  0  0  0  0  0  0  0  0  0  0
    6.1170    7.0506    0.0000 C   0  0  0  0  0  0  0  0  0  0  0  0
    4.6904    6.5871    0.0000 C   0  0  0  0  0  0  0  0  0  0  0  0
   -0.0000    3.6073    0.0000 C   0  0  0  0  0  0  0  0  0  0  0  0
   -0.0000    5.1073    0.0000 O   0  0  0  0  0  0  0  0  0  0  0  0
   -1.2135    2.7256    0.0000 N   0  0  0  0  0  0  0  0  0  0  0  0
  1  2  1  0
  2  3  1  0
  2  4  2  0
  4  5  1  0
  5  6  2  0
  6  7  1  0
  7  8  2  0
  8  9  1  0
  9 10  2  0
 10 11  1  0
 11 12  2  0
 12 13  1  0
 13 14  1  0
 14 15  2  0
 15 16  1  0
 16 17  2  0
 17 18  1  0
 18 19  1  0
 18 20  2  0
 18 21  2  0
 17 22  1  0
 22 23  2  0
 11 24  1  0
 24 25  2  0
 24 26  1  0
 10  5  1  0
 23 14  1  0
 26  9  1  0
M  END
>  <Compound_ID>  (671) 
CHEMBL270544

>  <Molecule Name>  (671) 
GW396574X

>  <Molecular Weight>  (671) 
370.43

>  <AlogP>  (671) 
2.53

>  <Smiles>  (671) 
CC(C)=Cc1cccc2c1/C(=N/Nc1ccc(S(N)(=O)=O)cc1)C(=O)N2

>  <Standard Type>  (671) 
Inhibition

>  <Standard Relation>  (671) 
'='

>  <Standard Units>  (671) 
%

>  <Standard Value>  (671) 
2.57

>  <Assay ChEMBL ID>  (671) 
CHEMBL1962240

>  <Assay Description>  (671) 
GSK_PKIS: ALK mean inhibition at 0.1 uM [Nanosyn]

>  <BAO Format ID>  (671) 
BAO_0000357

>  <BAO Label>  (671) 
single protein format

>  <Assay Organism>  (671) 
None

>  <Target ChEMBL ID>  (671) 
CHEMBL4247

>  <Target Name>  (671) 
ALK tyrosine kinase receptor

>  <Target Organism>  (671) 
Homo sapiens

>  <Target Type>  (671) 
SINGLE PROTEIN

>  <Document ChEMBL ID>  (671) 
CHEMBL1961873

>  <Source Description>  (671) 
GSK Published Kinase Inhibitor Set

>  <Document Journal>  (671) 
nan

>  <Document Year>  (671) 
nan

>  <Active>  (671) 
0.0

>  <bits>  (671) 
<rdkit.DataStructs.cDataStructs.ExplicitBitVect object at 0x000002422F16F220>

>  <Group>  (671) 
G2

$$$$

     RDKit          2D

 27 30  0  0  0  0  0  0  0  0999 V2000
  -13.3148   -1.8752    0.0000 C   0  0  0  0  0  0  0  0  0  0  0  0
  -11.8882   -2.3387    0.0000 O   0  0  0  0  0  0  0  0  0  0  0  0
  -10.7735   -1.3350    0.0000 C   0  0  0  0  0  0  0  0  0  0  0  0
  -11.0854    0.1322    0.0000 C   0  0  0  0  0  0  0  0  0  0  0  0
   -9.9707    1.1359    0.0000 C   0  0  0  0  0  0  0  0  0  0  0  0
   -8.5441    0.6723    0.0000 C   0  0  0  0  0  0  0  0  0  0  0  0
   -8.2322   -0.7949    0.0000 C   0  0  0  0  0  0  0  0  0  0  0  0
   -6.8056   -1.2584    0.0000 C   0  0  0  0  0  0  0  0  0  0  0  0
   -6.4937   -2.7256    0.0000 O   0  0  0  0  0  0  0  0  0  0  0  0
   -5.0672   -3.1891    0.0000 C   0  0  0  0  0  0  0  0  0  0  0  0
   -3.8536   -2.3075    0.0000 C   0  0  0  0  0  0  0  0  0  0  0  0
   -2.6401   -3.1891    0.0000 C   0  0  0  0  0  0  0  0  0  0  0  0
   -1.2135   -2.7256    0.0000 N   0  0  0  0  0  0  0  0  0  0  0  0
   -0.0000   -3.6073    0.0000 C   0  0  0  0  0  0  0  0  0  0  0  0
    1.2135   -2.7256    0.0000 N   0  0  0  0  0  0  0  0  0  0  0  0
    0.7500   -1.2990    0.0000 C   0  0  0  0  0  0  0  0  0  0  0  0
    1.5000    0.0000    0.0000 C   0  0  0  0  0  0  0  0  0  0  0  0
    0.7500    1.2990    0.0000 C   0  0  0  0  0  0  0  0  0  0  0  0
   -0.7500    1.2990    0.0000 C   0  0  0  0  0  0  0  0  0  0  0  0
   -1.5000    0.0000    0.0000 C   0  0  0  0  0  0  0  0  0  0  0  0
   -0.7500   -1.2990    0.0000 C   0  0  0  0  0  0  0  0  0  0  0  0
   -3.1036   -4.6157    0.0000 S   0  0  0  0  0  0  0  0  0  0  0  0
   -4.6036   -4.6157    0.0000 C   0  0  0  0  0  0  0  0  0  0  0  0
   -5.4853   -5.8293    0.0000 C   0  0  0  0  0  0  0  0  0  0  0  0
   -4.8752   -7.1996    0.0000 N   0  0  0  0  0  0  0  0  0  0  0  0
   -6.9771   -5.6725    0.0000 O   0  0  0  0  0  0  0  0  0  0  0  0
   -9.3469   -1.7986    0.0000 C   0  0  0  0  0  0  0  0  0  0  0  0
  1  2  1  0
  2  3  1  0
  3  4  2  0
  4  5  1  0
  5  6  2  0
  6  7  1  0
  7  8  1  0
  8  9  1  0
  9 10  1  0
 10 11  1  0
 11 12  2  0
 12 13  1  0
 13 14  1  0
 14 15  2  0
 15 16  1  0
 16 17  2  0
 17 18  1  0
 18 19  2  0
 19 20  1  0
 20 21  2  0
 12 22  1  0
 22 23  1  0
 23 24  1  0
 24 25  1  0
 24 26  2  0
  7 27  2  0
 27  3  1  0
 23 10  2  0
 21 13  1  0
 21 16  1  0
M  END
>  <Compound_ID>  (672) 
CHEMBL516248

>  <Molecule Name>  (672) 
GW804482X

>  <Molecular Weight>  (672) 
379.44

>  <AlogP>  (672) 
3.77

>  <Smiles>  (672) 
COc1cccc(COc2cc(-n3cnc4ccccc43)sc2C(N)=O)c1

>  <Standard Type>  (672) 
Inhibition

>  <Standard Relation>  (672) 
'='

>  <Standard Units>  (672) 
%

>  <Standard Value>  (672) 
2.9

>  <Assay ChEMBL ID>  (672) 
CHEMBL1962241

>  <Assay Description>  (672) 
GSK_PKIS: ALK mean inhibition at 1 uM [Nanosyn]

>  <BAO Format ID>  (672) 
BAO_0000357

>  <BAO Label>  (672) 
single protein format

>  <Assay Organism>  (672) 
None

>  <Target ChEMBL ID>  (672) 
CHEMBL4247

>  <Target Name>  (672) 
ALK tyrosine kinase receptor

>  <Target Organism>  (672) 
Homo sapiens

>  <Target Type>  (672) 
SINGLE PROTEIN

>  <Document ChEMBL ID>  (672) 
CHEMBL1961873

>  <Source Description>  (672) 
GSK Published Kinase Inhibitor Set

>  <Document Journal>  (672) 
nan

>  <Document Year>  (672) 
nan

>  <Active>  (672) 
0.0

>  <bits>  (672) 
<rdkit.DataStructs.cDataStructs.ExplicitBitVect object at 0x000002422F16F060>

>  <Group>  (672) 
G2

$$$$

     RDKit          2D

 23 26  0  0  0  0  0  0  0  0999 V2000
   -0.0000   -5.1073    0.0000 O   0  0  0  0  0  0  0  0  0  0  0  0
   -0.0000   -3.6073    0.0000 C   0  0  0  0  0  0  0  0  0  0  0  0
    1.2135   -2.7256    0.0000 N   0  0  0  0  0  0  0  0  0  0  0  0
    0.7500   -1.2990    0.0000 C   0  0  0  0  0  0  0  0  0  0  0  0
    1.5000    0.0000    0.0000 C   0  0  0  0  0  0  0  0  0  0  0  0
    0.7500    1.2990    0.0000 C   0  0  0  0  0  0  0  0  0  0  0  0
   -0.7500    1.2990    0.0000 C   0  0  0  0  0  0  0  0  0  0  0  0
   -1.5000    0.0000    0.0000 C   0  0  0  0  0  0  0  0  0  0  0  0
   -0.7500   -1.2990    0.0000 C   0  0  0  0  0  0  0  0  0  0  0  0
   -1.2135   -2.7256    0.0000 C   0  0  0  0  0  0  0  0  0  0  0  0
   -2.6401   -3.1891    0.0000 C   0  0  0  0  0  0  0  0  0  0  0  0
   -2.9520   -4.6564    0.0000 N   0  0  0  0  0  0  0  0  0  0  0  0
   -4.3786   -5.1199    0.0000 C   0  0  0  0  0  0  0  0  0  0  0  0
   -5.4933   -4.1162    0.0000 C   0  0  0  0  0  0  0  0  0  0  0  0
   -6.9199   -4.5797    0.0000 C   0  0  0  0  0  0  0  0  0  0  0  0
   -7.2317   -6.0469    0.0000 C   0  0  0  0  0  0  0  0  0  0  0  0
   -8.6583   -6.5105    0.0000 N   0  0  0  0  0  0  0  0  0  0  0  0
   -9.1218   -7.9371    0.0000 C   0  0  0  0  0  0  0  0  0  0  0  0
  -10.6218   -7.9371    0.0000 N   0  0  0  0  0  0  0  0  0  0  0  0
  -11.0854   -6.5105    0.0000 C   0  0  0  0  0  0  0  0  0  0  0  0
   -9.8718   -5.6288    0.0000 N   0  0  0  0  0  0  0  0  0  0  0  0
   -6.1170   -7.0506    0.0000 C   0  0  0  0  0  0  0  0  0  0  0  0
   -4.6904   -6.5871    0.0000 C   0  0  0  0  0  0  0  0  0  0  0  0
  1  2  2  0
  2  3  1  0
  3  4  1  0
  4  5  2  0
  5  6  1  0
  6  7  2  0
  7  8  1  0
  8  9  2  0
  9 10  1  0
 10 11  2  0
 11 12  1  0
 12 13  1  0
 13 14  2  0
 14 15  1  0
 15 16  2  0
 16 17  1  0
 17 18  1  0
 18 19  2  0
 19 20  1  0
 20 21  2  0
 16 22  1  0
 22 23  2  0
 10  2  1  0
 23 13  1  0
  9  4  1  0
 21 17  1  0
M  END
>  <Compound_ID>  (673) 
CHEMBL1794056

>  <Molecule Name>  (673) 
GW301789X

>  <Molecular Weight>  (673) 
303.32

>  <AlogP>  (673) 
2.67

>  <Smiles>  (673) 
O=C1Nc2ccccc2/C1=C/Nc1ccc(-n2cncn2)cc1

>  <Standard Type>  (673) 
Inhibition

>  <Standard Relation>  (673) 
'='

>  <Standard Units>  (673) 
%

>  <Standard Value>  (673) 
11.82

>  <Assay ChEMBL ID>  (673) 
CHEMBL1962241

>  <Assay Description>  (673) 
GSK_PKIS: ALK mean inhibition at 1 uM [Nanosyn]

>  <BAO Format ID>  (673) 
BAO_0000357

>  <BAO Label>  (673) 
single protein format

>  <Assay Organism>  (673) 
None

>  <Target ChEMBL ID>  (673) 
CHEMBL4247

>  <Target Name>  (673) 
ALK tyrosine kinase receptor

>  <Target Organism>  (673) 
Homo sapiens

>  <Target Type>  (673) 
SINGLE PROTEIN

>  <Document ChEMBL ID>  (673) 
CHEMBL1961873

>  <Source Description>  (673) 
GSK Published Kinase Inhibitor Set

>  <Document Journal>  (673) 
nan

>  <Document Year>  (673) 
nan

>  <Active>  (673) 
0.0

>  <bits>  (673) 
<rdkit.DataStructs.cDataStructs.ExplicitBitVect object at 0x000002422F16E8F0>

>  <Group>  (673) 
G2

$$$$

     RDKit          2D

 24 26  0  0  0  0  0  0  0  0999 V2000
    3.7500   -1.2990    0.0000 C   0  0  0  0  0  0  0  0  0  0  0  0
    3.0000    0.0000    0.0000 O   0  0  0  0  0  0  0  0  0  0  0  0
    1.5000    0.0000    0.0000 C   0  0  0  0  0  0  0  0  0  0  0  0
    0.7500   -1.2990    0.0000 C   0  0  0  0  0  0  0  0  0  0  0  0
   -0.7500   -1.2990    0.0000 C   0  0  0  0  0  0  0  0  0  0  0  0
   -1.5000   -2.5981    0.0000 N   0  0  0  0  0  0  0  0  0  0  0  0
   -3.0000   -2.5981    0.0000 C   0  0  0  0  0  0  0  0  0  0  0  0
   -3.8817   -3.8116    0.0000 N   0  0  0  0  0  0  0  0  0  0  0  0
   -5.3083   -3.3481    0.0000 C   0  0  0  0  0  0  0  0  0  0  0  0
   -5.3083   -1.8481    0.0000 C   0  0  0  0  0  0  0  0  0  0  0  0
   -6.5218   -0.9664    0.0000 C   0  0  0  0  0  0  0  0  0  0  0  0
   -6.3650    0.5254    0.0000 C   0  0  0  0  0  0  0  0  0  0  0  0
   -7.5785    1.4071    0.0000 C   0  0  0  0  0  0  0  0  0  0  0  0
   -8.9488    0.7970    0.0000 C   0  0  0  0  0  0  0  0  0  0  0  0
   -9.1056   -0.6948    0.0000 C   0  0  0  0  0  0  0  0  0  0  0  0
   -7.8921   -1.5765    0.0000 C   0  0  0  0  0  0  0  0  0  0  0  0
   -3.8817   -1.3846    0.0000 O   0  0  0  0  0  0  0  0  0  0  0  0
   -1.5000    0.0000    0.0000 C   0  0  0  0  0  0  0  0  0  0  0  0
   -0.7500    1.2990    0.0000 C   0  0  0  0  0  0  0  0  0  0  0  0
   -1.5000    2.5981    0.0000 O   0  0  0  0  0  0  0  0  0  0  0  0
   -0.7500    3.8971    0.0000 C   0  0  0  0  0  0  0  0  0  0  0  0
    0.7500    1.2990    0.0000 C   0  0  0  0  0  0  0  0  0  0  0  0
    1.5000    2.5981    0.0000 O   0  0  0  0  0  0  0  0  0  0  0  0
    3.0000    2.5981    0.0000 C   0  0  0  0  0  0  0  0  0  0  0  0
  1  2  1  0
  2  3  1  0
  3  4  2  0
  4  5  1  0
  5  6  1  0
  6  7  1  0
  7  8  2  0
  8  9  1  0
  9 10  2  0
 10 11  1  0
 11 12  2  0
 12 13  1  0
 13 14  2  0
 14 15  1  0
 15 16  2  0
 10 17  1  0
  5 18  2  0
 18 19  1  0
 19 20  1  0
 20 21  1  0
 19 22  2  0
 22 23  1  0
 23 24  1  0
 22  3  1  0
 17  7  1  0
 16 11  1  0
M  END
>  <Compound_ID>  (674) 
CHEMBL443563

>  <Molecule Name>  (674) 
GW627512B

>  <Molecular Weight>  (674) 
326.35

>  <AlogP>  (674) 
4.11

>  <Smiles>  (674) 
COc1cc(Nc2ncc(-c3ccccc3)o2)cc(OC)c1OC

>  <Standard Type>  (674) 
Inhibition

>  <Standard Relation>  (674) 
'='

>  <Standard Units>  (674) 
%

>  <Standard Value>  (674) 
-0.68

>  <Assay ChEMBL ID>  (674) 
CHEMBL1962241

>  <Assay Description>  (674) 
GSK_PKIS: ALK mean inhibition at 1 uM [Nanosyn]

>  <BAO Format ID>  (674) 
BAO_0000357

>  <BAO Label>  (674) 
single protein format

>  <Assay Organism>  (674) 
None

>  <Target ChEMBL ID>  (674) 
CHEMBL4247

>  <Target Name>  (674) 
ALK tyrosine kinase receptor

>  <Target Organism>  (674) 
Homo sapiens

>  <Target Type>  (674) 
SINGLE PROTEIN

>  <Document ChEMBL ID>  (674) 
CHEMBL1961873

>  <Source Description>  (674) 
GSK Published Kinase Inhibitor Set

>  <Document Journal>  (674) 
nan

>  <Document Year>  (674) 
nan

>  <Active>  (674) 
0.0

>  <bits>  (674) 
<rdkit.DataStructs.cDataStructs.ExplicitBitVect object at 0x000002422F16DD20>

>  <Group>  (674) 
G2

$$$$

     RDKit          2D

 36 39  0  0  0  0  0  0  0  0999 V2000
    5.2500   -1.2990    0.0000 C   0  0  0  0  0  0  0  0  0  0  0  0
    3.7500   -1.2990    0.0000 C   0  0  0  0  0  0  0  0  0  0  0  0
    3.0000    0.0000    0.0000 O   0  0  0  0  0  0  0  0  0  0  0  0
    1.5000    0.0000    0.0000 C   0  0  0  0  0  0  0  0  0  0  0  0
    0.7500   -1.2990    0.0000 C   0  0  0  0  0  0  0  0  0  0  0  0
   -0.7500   -1.2990    0.0000 C   0  0  0  0  0  0  0  0  0  0  0  0
   -1.5000    0.0000    0.0000 N   0  0  0  0  0  0  0  0  0  0  0  0
   -3.0000    0.0000    0.0000 C   0  0  0  0  0  0  0  0  0  0  0  0
   -3.7500    1.2990    0.0000 C   0  0  0  0  0  0  0  0  0  0  0  0
   -5.2500    1.2990    0.0000 C   0  0  0  0  0  0  0  0  0  0  0  0
   -6.0000    0.0000    0.0000 C   0  0  0  0  0  0  0  0  0  0  0  0
   -7.5000    0.0000    0.0000 F   0  0  0  0  0  0  0  0  0  0  0  0
   -5.2500   -1.2990    0.0000 C   0  0  0  0  0  0  0  0  0  0  0  0
   -3.7500   -1.2990    0.0000 C   0  0  0  0  0  0  0  0  0  0  0  0
   -0.7500    1.2990    0.0000 C   0  0  0  0  0  0  0  0  0  0  0  0
   -1.5000    2.5981    0.0000 O   0  0  0  0  0  0  0  0  0  0  0  0
    0.7500    1.2990    0.0000 C   0  0  0  0  0  0  0  0  0  0  0  0
    1.5000    2.5981    0.0000 C   0  0  0  0  0  0  0  0  0  0  0  0
    0.7500    3.8971    0.0000 O   0  0  0  0  0  0  0  0  0  0  0  0
    3.0000    2.5981    0.0000 N   0  0  0  0  0  0  0  0  0  0  0  0
    3.7500    3.8971    0.0000 C   0  0  0  0  0  0  0  0  0  0  0  0
    5.2500    3.8971    0.0000 C   0  0  0  0  0  0  0  0  0  0  0  0
    6.0000    5.1962    0.0000 C   0  0  0  0  0  0  0  0  0  0  0  0
    5.2500    6.4952    0.0000 C   0  0  0  0  0  0  0  0  0  0  0  0
    6.0000    7.7942    0.0000 O   0  0  0  0  0  0  0  0  0  0  0  0
    7.5000    7.7942    0.0000 C   0  0  0  0  0  0  0  0  0  0  0  0
    8.2500    6.4952    0.0000 C   0  0  0  0  0  0  0  0  0  0  0  0
    9.7500    6.4952    0.0000 C   0  0  0  0  0  0  0  0  0  0  0  0
   10.5000    7.7942    0.0000 N   0  0  0  0  0  0  0  0  0  0  0  0
    9.7500    9.0933    0.0000 C   0  0  0  0  0  0  0  0  0  0  0  0
   10.5000   10.3923    0.0000 N   0  0  0  0  0  0  0  0  0  0  0  0
    8.2500    9.0933    0.0000 C   0  0  0  0  0  0  0  0  0  0  0  0
    7.5000   10.3923    0.0000 Cl  0  0  0  0  0  0  0  0  0  0  0  0
    3.7500    6.4952    0.0000 C   0  0  0  0  0  0  0  0  0  0  0  0
    3.0000    7.7942    0.0000 F   0  0  0  0  0  0  0  0  0  0  0  0
    3.0000    5.1962    0.0000 C   0  0  0  0  0  0  0  0  0  0  0  0
  1  2  1  0
  2  3  1  0
  3  4  1  0
  4  5  1  0
  5  6  2  0
  6  7  1  0
  7  8  1  0
  8  9  2  0
  9 10  1  0
 10 11  2  0
 11 12  1  0
 11 13  1  0
 13 14  2  0
  7 15  1  0
 15 16  2  0
 15 17  1  0
 17 18  1  0
 18 19  2  0
 18 20  1  0
 20 21  1  0
 21 22  2  0
 22 23  1  0
 23 24  2  0
 24 25  1  0
 25 26  1  0
 26 27  2  0
 27 28  1  0
 28 29  2  0
 29 30  1  0
 30 31  1  0
 30 32  2  0
 32 33  1  0
 24 34  1  0
 34 35  1  0
 34 36  2  0
 17  4  2  0
 36 21  1  0
 14  8  1  0
 32 26  1  0
M  END
>  <Compound_ID>  (675) 
CHEMBL460702

>  <Molecule Name>  (675) 
BMS-777607

>  <Molecular Weight>  (675) 
512.9

>  <AlogP>  (675) 
5.19

>  <Smiles>  (675) 
CCOc1ccn(-c2ccc(F)cc2)c(=O)c1C(=O)Nc1ccc(Oc2ccnc(N)c2Cl)c(F)c1

>  <Standard Type>  (675) 
Inhibition

>  <Standard Relation>  (675) 
'='

>  <Standard Units>  (675) 
%

>  <Standard Value>  (675) 
1.8

>  <Assay ChEMBL ID>  (675) 
CHEMBL4432482

>  <Assay Description>  (675) 
Inhibition of recombinant ALK (unknown origin) at 1 uM using poly (Glu,Tyr)4:1 as substrate incubated for 60 mins by ELISA

>  <BAO Format ID>  (675) 
BAO_0000357

>  <BAO Label>  (675) 
single protein format

>  <Assay Organism>  (675) 
Homo sapiens

>  <Target ChEMBL ID>  (675) 
CHEMBL4247

>  <Target Name>  (675) 
ALK tyrosine kinase receptor

>  <Target Organism>  (675) 
Homo sapiens

>  <Target Type>  (675) 
SINGLE PROTEIN

>  <Document ChEMBL ID>  (675) 
CHEMBL4431350

>  <Source Description>  (675) 
Scientific Literature

>  <Document Journal>  (675) 
Bioorg Med Chem Lett

>  <Document Year>  (675) 
2016.0

>  <Active>  (675) 
0.0

>  <bits>  (675) 
<rdkit.DataStructs.cDataStructs.ExplicitBitVect object at 0x000002422F16E5E0>

>  <Group>  (675) 
G2

$$$$

     RDKit          2D

 22 25  0  0  0  0  0  0  0  0999 V2000
   -4.6883    2.2939    0.0000 C   0  0  0  0  0  0  0  0  0  0  0  0
   -4.3764    3.7611    0.0000 C   0  0  0  0  0  0  0  0  0  0  0  0
   -5.4912    4.7648    0.0000 C   0  0  0  0  0  0  0  0  0  0  0  0
   -5.1793    6.2320    0.0000 C   0  0  0  0  0  0  0  0  0  0  0  0
   -3.7527    6.6955    0.0000 C   0  0  0  0  0  0  0  0  0  0  0  0
   -3.4408    8.1628    0.0000 C   0  0  0  0  0  0  0  0  0  0  0  0
   -4.5556    9.1664    0.0000 O   0  0  0  0  0  0  0  0  0  0  0  0
   -2.0143    8.6263    0.0000 N   0  0  0  0  0  0  0  0  0  0  0  0
   -1.7024   10.0935    0.0000 C   0  0  0  0  0  0  0  0  0  0  0  0
   -2.1659   11.5201    0.0000 C   0  0  0  0  0  0  0  0  0  0  0  0
   -0.6987   11.2082    0.0000 C   0  0  0  0  0  0  0  0  0  0  0  0
   -2.6380    5.6918    0.0000 C   0  0  0  0  0  0  0  0  0  0  0  0
   -2.9499    4.2246    0.0000 C   0  0  0  0  0  0  0  0  0  0  0  0
   -1.8351    3.2209    0.0000 C   0  0  0  0  0  0  0  0  0  0  0  0
   -0.4086    3.6844    0.0000 C   0  0  0  0  0  0  0  0  0  0  0  0
    0.7062    2.6807    0.0000 C   0  0  0  0  0  0  0  0  0  0  0  0
    0.3943    1.2135    0.0000 C   0  0  0  0  0  0  0  0  0  0  0  0
    1.2760    0.0000    0.0000 N   0  0  0  0  0  0  0  0  0  0  0  0
    0.3943   -1.2135    0.0000 N   0  0  0  0  0  0  0  0  0  0  0  0
   -1.0323   -0.7500    0.0000 C   0  0  0  0  0  0  0  0  0  0  0  0
   -1.0323    0.7500    0.0000 C   0  0  0  0  0  0  0  0  0  0  0  0
   -2.1470    1.7537    0.0000 C   0  0  0  0  0  0  0  0  0  0  0  0
  1  2  1  0
  2  3  2  0
  3  4  1  0
  4  5  2  0
  5  6  1  0
  6  7  2  0
  6  8  1  0
  8  9  1  0
  9 10  1  0
 10 11  1  0
  5 12  1  0
 12 13  2  0
 13 14  1  0
 14 15  2  0
 15 16  1  0
 16 17  2  0
 17 18  1  0
 18 19  1  0
 19 20  2  0
 20 21  1  0
 21 22  2  0
 13  2  1  0
 22 14  1  0
 11  9  1  0
 21 17  1  0
M  END
>  <Compound_ID>  (676) 
CHEMBL495902

>  <Molecule Name>  (676) 
GW820759X

>  <Molecular Weight>  (676) 
291.35

>  <AlogP>  (676) 
3.43

>  <Smiles>  (676) 
Cc1ccc(C(=O)NC2CC2)cc1-c1ccc2[nH]ncc2c1

>  <Standard Type>  (676) 
Inhibition

>  <Standard Relation>  (676) 
'='

>  <Standard Units>  (676) 
%

>  <Standard Value>  (676) 
-1.6

>  <Assay ChEMBL ID>  (676) 
CHEMBL1962240

>  <Assay Description>  (676) 
GSK_PKIS: ALK mean inhibition at 0.1 uM [Nanosyn]

>  <BAO Format ID>  (676) 
BAO_0000357

>  <BAO Label>  (676) 
single protein format

>  <Assay Organism>  (676) 
None

>  <Target ChEMBL ID>  (676) 
CHEMBL4247

>  <Target Name>  (676) 
ALK tyrosine kinase receptor

>  <Target Organism>  (676) 
Homo sapiens

>  <Target Type>  (676) 
SINGLE PROTEIN

>  <Document ChEMBL ID>  (676) 
CHEMBL1961873

>  <Source Description>  (676) 
GSK Published Kinase Inhibitor Set

>  <Document Journal>  (676) 
nan

>  <Document Year>  (676) 
nan

>  <Active>  (676) 
0.0

>  <bits>  (676) 
<rdkit.DataStructs.cDataStructs.ExplicitBitVect object at 0x000002422F16F140>

>  <Group>  (676) 
G2

$$$$

     RDKit          2D

 28 31  0  0  0  0  0  0  0  0999 V2000
  -11.7058    2.3123    0.0000 C   0  0  0  0  0  0  0  0  0  0  0  0
  -10.5911    1.3086    0.0000 C   0  0  0  0  0  0  0  0  0  0  0  0
   -9.1645    1.7722    0.0000 C   0  0  0  0  0  0  0  0  0  0  0  0
   -8.0498    0.7685    0.0000 N   0  0  0  0  0  0  0  0  0  0  0  0
   -6.6232    1.2320    0.0000 C   0  0  0  0  0  0  0  0  0  0  0  0
   -6.3114    2.6992    0.0000 C   0  0  0  0  0  0  0  0  0  0  0  0
   -4.8848    3.1627    0.0000 C   0  0  0  0  0  0  0  0  0  0  0  0
   -3.7701    2.1590    0.0000 C   0  0  0  0  0  0  0  0  0  0  0  0
   -4.0819    0.6918    0.0000 C   0  0  0  0  0  0  0  0  0  0  0  0
   -2.9672   -0.3119    0.0000 N   0  0  0  0  0  0  0  0  0  0  0  0
   -3.1240   -1.8037    0.0000 N   0  0  0  0  0  0  0  0  0  0  0  0
   -1.7537   -2.4138    0.0000 C   0  0  0  0  0  0  0  0  0  0  0  0
   -0.7500   -1.2990    0.0000 C   0  0  0  0  0  0  0  0  0  0  0  0
    0.7500   -1.2990    0.0000 C   0  0  0  0  0  0  0  0  0  0  0  0
    1.5000   -2.5981    0.0000 N   0  0  0  0  0  0  0  0  0  0  0  0
    3.0000   -2.5981    0.0000 N   0  0  0  0  0  0  0  0  0  0  0  0
    3.7500   -3.8971    0.0000 C   0  0  0  0  0  0  0  0  0  0  0  0
    5.2500   -3.8971    0.0000 C   0  0  0  0  0  0  0  0  0  0  0  0
    6.0000   -5.1962    0.0000 C   0  0  0  0  0  0  0  0  0  0  0  0
    7.5000   -5.1962    0.0000 C   0  0  0  0  0  0  0  0  0  0  0  0
    8.2500   -3.8971    0.0000 N   0  0  0  0  0  0  0  0  0  0  0  0
    7.5000   -2.5981    0.0000 C   0  0  0  0  0  0  0  0  0  0  0  0
    6.0000   -2.5981    0.0000 C   0  0  0  0  0  0  0  0  0  0  0  0
    1.5000    0.0000    0.0000 N   0  0  0  0  0  0  0  0  0  0  0  0
    0.7500    1.2990    0.0000 C   0  0  0  0  0  0  0  0  0  0  0  0
   -0.7500    1.2990    0.0000 N   0  0  0  0  0  0  0  0  0  0  0  0
   -1.5000    0.0000    0.0000 C   0  0  0  0  0  0  0  0  0  0  0  0
   -5.5085    0.2283    0.0000 C   0  0  0  0  0  0  0  0  0  0  0  0
  1  2  1  0
  2  3  1  0
  3  4  1  0
  4  5  1  0
  5  6  2  0
  6  7  1  0
  7  8  2  0
  8  9  1  0
  9 10  1  0
 10 11  1  0
 11 12  2  0
 12 13  1  0
 13 14  2  0
 14 15  1  0
 15 16  1  0
 16 17  2  0
 17 18  1  0
 18 19  2  0
 19 20  1  0
 20 21  2  0
 21 22  1  0
 22 23  2  0
 14 24  1  0
 24 25  2  0
 25 26  1  0
 26 27  2  0
  9 28  2  0
 28  5  1  0
 27 10  1  0
 27 13  1  0
 23 18  1  0
M  END
>  <Compound_ID>  (677) 
CHEMBL67241

>  <Molecule Name>  (677) 
GW794607X

>  <Molecular Weight>  (677) 
372.44

>  <AlogP>  (677) 
3.48

>  <Smiles>  (677) 
CCCNc1cccc(-n2ncc3c(N/N=C/c4ccncc4)ncnc32)c1

>  <Standard Type>  (677) 
Inhibition

>  <Standard Relation>  (677) 
'='

>  <Standard Units>  (677) 
%

>  <Standard Value>  (677) 
0.42

>  <Assay ChEMBL ID>  (677) 
CHEMBL1962240

>  <Assay Description>  (677) 
GSK_PKIS: ALK mean inhibition at 0.1 uM [Nanosyn]

>  <BAO Format ID>  (677) 
BAO_0000357

>  <BAO Label>  (677) 
single protein format

>  <Assay Organism>  (677) 
None

>  <Target ChEMBL ID>  (677) 
CHEMBL4247

>  <Target Name>  (677) 
ALK tyrosine kinase receptor

>  <Target Organism>  (677) 
Homo sapiens

>  <Target Type>  (677) 
SINGLE PROTEIN

>  <Document ChEMBL ID>  (677) 
CHEMBL1961873

>  <Source Description>  (677) 
GSK Published Kinase Inhibitor Set

>  <Document Journal>  (677) 
nan

>  <Document Year>  (677) 
nan

>  <Active>  (677) 
0.0

>  <bits>  (677) 
<rdkit.DataStructs.cDataStructs.ExplicitBitVect object at 0x000002422F16EDC0>

>  <Group>  (677) 
G2

$$$$

     RDKit          2D

 26 28  0  0  0  0  0  0  0  0999 V2000
    3.0000    0.0000    0.0000 C   0  0  0  0  0  0  0  0  0  0  0  0
    1.5000    0.0000    0.0000 C   0  0  0  0  0  0  0  0  0  0  0  0
    0.7500   -1.2990    0.0000 C   0  0  0  0  0  0  0  0  0  0  0  0
    1.5000   -2.5981    0.0000 Cl  0  0  0  0  0  0  0  0  0  0  0  0
   -0.7500   -1.2990    0.0000 C   0  0  0  0  0  0  0  0  0  0  0  0
   -1.5000    0.0000    0.0000 C   0  0  0  0  0  0  0  0  0  0  0  0
   -0.7500    1.2990    0.0000 C   0  0  0  0  0  0  0  0  0  0  0  0
    0.7500    1.2990    0.0000 C   0  0  0  0  0  0  0  0  0  0  0  0
    1.5000    2.5981    0.0000 C   0  0  0  0  0  0  0  0  0  0  0  0
    0.8899    3.9684    0.0000 C   0  0  0  0  0  0  0  0  0  0  0  0
    2.0046    4.9721    0.0000 C   0  0  0  0  0  0  0  0  0  0  0  0
    3.3037    4.2221    0.0000 C   0  0  0  0  0  0  0  0  0  0  0  0
    4.6740    4.8322    0.0000 C   0  0  0  0  0  0  0  0  0  0  0  0
    4.8308    6.3240    0.0000 O   0  0  0  0  0  0  0  0  0  0  0  0
    5.8875    3.9505    0.0000 N   0  0  0  0  0  0  0  0  0  0  0  0
    7.2578    4.5606    0.0000 C   0  0  0  0  0  0  0  0  0  0  0  0
    8.4713    3.6789    0.0000 C   0  0  0  0  0  0  0  0  0  0  0  0
    9.8417    4.2890    0.0000 C   0  0  0  0  0  0  0  0  0  0  0  0
    9.9984    5.7808    0.0000 C   0  0  0  0  0  0  0  0  0  0  0  0
   11.3688    6.3909    0.0000 S   0  0  0  0  0  0  0  0  0  0  0  0
   12.7391    7.0010    0.0000 N   0  0  0  0  0  0  0  0  0  0  0  0
   11.9789    5.0206    0.0000 O   0  0  0  0  0  0  0  0  0  0  0  0
   10.7587    7.7613    0.0000 O   0  0  0  0  0  0  0  0  0  0  0  0
    8.7849    6.6625    0.0000 C   0  0  0  0  0  0  0  0  0  0  0  0
    7.4146    6.0524    0.0000 C   0  0  0  0  0  0  0  0  0  0  0  0
    2.9918    2.7549    0.0000 O   0  0  0  0  0  0  0  0  0  0  0  0
  1  2  1  0
  2  3  2  0
  3  4  1  0
  3  5  1  0
  5  6  2  0
  6  7  1  0
  7  8  2  0
  8  9  1  0
  9 10  2  0
 10 11  1  0
 11 12  2  0
 12 13  1  0
 13 14  2  0
 13 15  1  0
 15 16  1  0
 16 17  2  0
 17 18  1  0
 18 19  2  0
 19 20  1  0
 20 21  1  0
 20 22  2  0
 20 23  2  0
 19 24  1  0
 24 25  2  0
 12 26  1  0
  8  2  1  0
 26  9  1  0
 25 16  1  0
M  END
>  <Compound_ID>  (678) 
CHEMBL3752265

>  <Molecule Name>  (678) 
nan

>  <Molecular Weight>  (678) 
390.85

>  <AlogP>  (678) 
3.81

>  <Smiles>  (678) 
Cc1c(Cl)cccc1-c1ccc(C(=O)Nc2ccc(S(N)(=O)=O)cc2)o1

>  <Standard Type>  (678) 
Inhibition

>  <Standard Relation>  (678) 
'='

>  <Standard Units>  (678) 
%

>  <Standard Value>  (678) 
18.4

>  <Assay ChEMBL ID>  (678) 
CHEMBL3756750

>  <Assay Description>  (678) 
Inhibition of human ALK using IGF-1Rtide as substrate at 10 uM after 2 hrs in presence of 30 uM ATP

>  <BAO Format ID>  (678) 
BAO_0000357

>  <BAO Label>  (678) 
single protein format

>  <Assay Organism>  (678) 
Homo sapiens

>  <Target ChEMBL ID>  (678) 
CHEMBL4247

>  <Target Name>  (678) 
ALK tyrosine kinase receptor

>  <Target Organism>  (678) 
Homo sapiens

>  <Target Type>  (678) 
SINGLE PROTEIN

>  <Document ChEMBL ID>  (678) 
CHEMBL3751797

>  <Source Description>  (678) 
Scientific Literature

>  <Document Journal>  (678) 
Medchemcomm

>  <Document Year>  (678) 
2015.0

>  <Active>  (678) 
0.0

>  <bits>  (678) 
<rdkit.DataStructs.cDataStructs.ExplicitBitVect object at 0x000002422F16F530>

>  <Group>  (678) 
G2

$$$$

     RDKit          2D

 18 20  0  0  0  0  0  0  0  0999 V2000
   -1.2990  -10.3573    0.0000 C   0  0  0  0  0  0  0  0  0  0  0  0
    0.0000   -9.6073    0.0000 O   0  0  0  0  0  0  0  0  0  0  0  0
    0.0000   -8.1073    0.0000 C   0  0  0  0  0  0  0  0  0  0  0  0
   -1.2990   -7.3573    0.0000 C   0  0  0  0  0  0  0  0  0  0  0  0
   -1.2990   -5.8573    0.0000 C   0  0  0  0  0  0  0  0  0  0  0  0
   -0.0000   -5.1073    0.0000 C   0  0  0  0  0  0  0  0  0  0  0  0
   -0.0000   -3.6073    0.0000 C   0  0  0  0  0  0  0  0  0  0  0  0
    1.2135   -2.7256    0.0000 C   0  0  0  0  0  0  0  0  0  0  0  0
    0.7500   -1.2990    0.0000 C   0  0  0  0  0  0  0  0  0  0  0  0
    1.5000    0.0000    0.0000 C   0  0  0  0  0  0  0  0  0  0  0  0
    3.0000    0.0000    0.0000 N   0  0  0  0  0  0  0  0  0  0  0  0
    0.7500    1.2990    0.0000 N   0  0  0  0  0  0  0  0  0  0  0  0
   -0.7500    1.2990    0.0000 C   0  0  0  0  0  0  0  0  0  0  0  0
   -1.5000    0.0000    0.0000 N   0  0  0  0  0  0  0  0  0  0  0  0
   -0.7500   -1.2990    0.0000 C   0  0  0  0  0  0  0  0  0  0  0  0
   -1.2135   -2.7256    0.0000 O   0  0  0  0  0  0  0  0  0  0  0  0
    1.2990   -5.8573    0.0000 C   0  0  0  0  0  0  0  0  0  0  0  0
    1.2990   -7.3573    0.0000 C   0  0  0  0  0  0  0  0  0  0  0  0
  1  2  1  0
  2  3  1  0
  3  4  2  0
  4  5  1  0
  5  6  2  0
  6  7  1  0
  7  8  2  0
  8  9  1  0
  9 10  2  0
 10 11  1  0
 10 12  1  0
 12 13  2  0
 13 14  1  0
 14 15  2  0
 15 16  1  0
  6 17  1  0
 17 18  2  0
 18  3  1  0
 16  7  1  0
 15  9  1  0
M  END
>  <Compound_ID>  (679) 
CHEMBL373073

>  <Molecule Name>  (679) 
GW642138X

>  <Molecular Weight>  (679) 
241.25

>  <AlogP>  (679) 
2.48

>  <Smiles>  (679) 
COc1ccc(-c2cc3c(N)ncnc3o2)cc1

>  <Standard Type>  (679) 
Inhibition

>  <Standard Relation>  (679) 
'='

>  <Standard Units>  (679) 
%

>  <Standard Value>  (679) 
-1.19

>  <Assay ChEMBL ID>  (679) 
CHEMBL1962240

>  <Assay Description>  (679) 
GSK_PKIS: ALK mean inhibition at 0.1 uM [Nanosyn]

>  <BAO Format ID>  (679) 
BAO_0000357

>  <BAO Label>  (679) 
single protein format

>  <Assay Organism>  (679) 
None

>  <Target ChEMBL ID>  (679) 
CHEMBL4247

>  <Target Name>  (679) 
ALK tyrosine kinase receptor

>  <Target Organism>  (679) 
Homo sapiens

>  <Target Type>  (679) 
SINGLE PROTEIN

>  <Document ChEMBL ID>  (679) 
CHEMBL1961873

>  <Source Description>  (679) 
GSK Published Kinase Inhibitor Set

>  <Document Journal>  (679) 
nan

>  <Document Year>  (679) 
nan

>  <Active>  (679) 
0.0

>  <bits>  (679) 
<rdkit.DataStructs.cDataStructs.ExplicitBitVect object at 0x000002422F16D700>

>  <Group>  (679) 
G2

$$$$

     RDKit          2D

 25 28  0  0  0  0  0  0  0  0999 V2000
   -3.6221    4.6871    0.0000 C   0  0  0  0  0  0  0  0  0  0  0  0
   -5.0487    4.2236    0.0000 C   0  0  0  0  0  0  0  0  0  0  0  0
   -6.1634    5.2273    0.0000 C   0  0  0  0  0  0  0  0  0  0  0  0
   -5.3605    2.7564    0.0000 C   0  0  0  0  0  0  0  0  0  0  0  0
   -4.2458    1.7527    0.0000 C   0  0  0  0  0  0  0  0  0  0  0  0
   -4.5577    0.2855    0.0000 C   0  0  0  0  0  0  0  0  0  0  0  0
   -5.9843   -0.1781    0.0000 C   0  0  0  0  0  0  0  0  0  0  0  0
   -6.2961   -1.6453    0.0000 N   0  0  0  0  0  0  0  0  0  0  0  0
   -5.1814   -2.6490    0.0000 C   0  0  0  0  0  0  0  0  0  0  0  0
   -5.4933   -4.1162    0.0000 N   0  0  0  0  0  0  0  0  0  0  0  0
   -4.3786   -5.1199    0.0000 C   0  0  0  0  0  0  0  0  0  0  0  0
   -2.9520   -4.6564    0.0000 C   0  0  0  0  0  0  0  0  0  0  0  0
   -2.6401   -3.1891    0.0000 C   0  0  0  0  0  0  0  0  0  0  0  0
   -1.2135   -2.7256    0.0000 C   0  0  0  0  0  0  0  0  0  0  0  0
   -0.0000   -3.6073    0.0000 C   0  0  0  0  0  0  0  0  0  0  0  0
    1.2135   -2.7256    0.0000 N   0  0  0  0  0  0  0  0  0  0  0  0
    0.7500   -1.2990    0.0000 N   0  0  0  0  0  0  0  0  0  0  0  0
    1.5000    0.0000    0.0000 N   0  0  0  0  0  0  0  0  0  0  0  0
    0.7500    1.2990    0.0000 C   0  0  0  0  0  0  0  0  0  0  0  0
   -0.7500    1.2990    0.0000 C   0  0  0  0  0  0  0  0  0  0  0  0
   -1.5000    0.0000    0.0000 C   0  0  0  0  0  0  0  0  0  0  0  0
   -0.7500   -1.2990    0.0000 C   0  0  0  0  0  0  0  0  0  0  0  0
   -3.7548   -2.1855    0.0000 N   0  0  0  0  0  0  0  0  0  0  0  0
   -7.0990    0.8256    0.0000 C   0  0  0  0  0  0  0  0  0  0  0  0
   -6.7871    2.2929    0.0000 C   0  0  0  0  0  0  0  0  0  0  0  0
  1  2  1  0
  2  3  1  0
  2  4  1  0
  4  5  2  0
  5  6  1  0
  6  7  2  0
  7  8  1  0
  8  9  1  0
  9 10  2  0
 10 11  1  0
 11 12  2  0
 12 13  1  0
 13 14  1  0
 14 15  1  0
 15 16  2  0
 16 17  1  0
 17 18  1  0
 18 19  2  0
 19 20  1  0
 20 21  2  0
 21 22  1  0
 13 23  2  0
  7 24  1  0
 24 25  2  0
 25  4  1  0
 23  9  1  0
 22 14  2  0
 22 17  1  0
M  END
>  <Compound_ID>  (680) 
CHEMBL359963

>  <Molecule Name>  (680) 
GW805758X

>  <Molecular Weight>  (680) 
330.4

>  <AlogP>  (680) 
4.05

>  <Smiles>  (680) 
CC(C)c1ccc(Nc2nccc(-c3cnn4ncccc34)n2)cc1

>  <Standard Type>  (680) 
Inhibition

>  <Standard Relation>  (680) 
'='

>  <Standard Units>  (680) 
%

>  <Standard Value>  (680) 
4.56

>  <Assay ChEMBL ID>  (680) 
CHEMBL1962240

>  <Assay Description>  (680) 
GSK_PKIS: ALK mean inhibition at 0.1 uM [Nanosyn]

>  <BAO Format ID>  (680) 
BAO_0000357

>  <BAO Label>  (680) 
single protein format

>  <Assay Organism>  (680) 
None

>  <Target ChEMBL ID>  (680) 
CHEMBL4247

>  <Target Name>  (680) 
ALK tyrosine kinase receptor

>  <Target Organism>  (680) 
Homo sapiens

>  <Target Type>  (680) 
SINGLE PROTEIN

>  <Document ChEMBL ID>  (680) 
CHEMBL1961873

>  <Source Description>  (680) 
GSK Published Kinase Inhibitor Set

>  <Document Journal>  (680) 
nan

>  <Document Year>  (680) 
nan

>  <Active>  (680) 
0.0

>  <bits>  (680) 
<rdkit.DataStructs.cDataStructs.ExplicitBitVect object at 0x000002422F16E730>

>  <Group>  (680) 
G2

$$$$

     RDKit          2D

 27 31  0  0  0  0  0  0  0  0999 V2000
  -12.8202   -5.4998    0.0000 C   0  0  0  0  0  0  0  0  0  0  0  0
  -11.5211   -4.7498    0.0000 C   0  0  0  0  0  0  0  0  0  0  0  0
  -10.2221   -5.4998    0.0000 C   0  0  0  0  0  0  0  0  0  0  0  0
  -10.2221   -6.9998    0.0000 C   0  0  0  0  0  0  0  0  0  0  0  0
   -8.9231   -7.7498    0.0000 C   0  0  0  0  0  0  0  0  0  0  0  0
   -7.6240   -6.9998    0.0000 C   0  0  0  0  0  0  0  0  0  0  0  0
   -6.2537   -7.6099    0.0000 N   0  0  0  0  0  0  0  0  0  0  0  0
   -5.2500   -6.4952    0.0000 C   0  0  0  0  0  0  0  0  0  0  0  0
   -3.7500   -6.4952    0.0000 C   0  0  0  0  0  0  0  0  0  0  0  0
   -3.0000   -5.1962    0.0000 C   0  0  0  0  0  0  0  0  0  0  0  0
   -3.7500   -3.8971    0.0000 C   0  0  0  0  0  0  0  0  0  0  0  0
   -3.0000   -2.5981    0.0000 N   0  0  0  0  0  0  0  0  0  0  0  0
   -1.5000   -2.5981    0.0000 C   0  0  0  0  0  0  0  0  0  0  0  0
   -0.7500   -3.8971    0.0000 N   0  0  0  0  0  0  0  0  0  0  0  0
    0.7500   -3.8971    0.0000 C   0  0  0  0  0  0  0  0  0  0  0  0
    1.5000   -2.5981    0.0000 N   0  0  0  0  0  0  0  0  0  0  0  0
    0.7500   -1.2990    0.0000 C   0  0  0  0  0  0  0  0  0  0  0  0
    1.5000    0.0000    0.0000 C   0  0  0  0  0  0  0  0  0  0  0  0
    0.7500    1.2990    0.0000 C   0  0  0  0  0  0  0  0  0  0  0  0
   -0.7500    1.2990    0.0000 C   0  0  0  0  0  0  0  0  0  0  0  0
   -1.5000    0.0000    0.0000 C   0  0  0  0  0  0  0  0  0  0  0  0
   -0.7500   -1.2990    0.0000 C   0  0  0  0  0  0  0  0  0  0  0  0
   -5.2500   -3.8971    0.0000 C   0  0  0  0  0  0  0  0  0  0  0  0
   -6.0000   -5.1962    0.0000 C   0  0  0  0  0  0  0  0  0  0  0  0
   -7.4672   -5.5080    0.0000 N   0  0  0  0  0  0  0  0  0  0  0  0
  -11.5211   -7.7498    0.0000 C   0  0  0  0  0  0  0  0  0  0  0  0
  -12.8202   -6.9998    0.0000 C   0  0  0  0  0  0  0  0  0  0  0  0
  1  2  2  0
  2  3  1  0
  3  4  2  0
  4  5  1  0
  5  6  1  0
  6  7  2  0
  7  8  1  0
  8  9  2  0
  9 10  1  0
 10 11  2  0
 11 12  1  0
 12 13  1  0
 13 14  2  0
 14 15  1  0
 15 16  2  0
 16 17  1  0
 17 18  2  0
 18 19  1  0
 19 20  2  0
 20 21  1  0
 21 22  2  0
 11 23  1  0
 23 24  2  0
 24 25  1  0
  4 26  1  0
 26 27  2  0
 27  1  1  0
 25  6  1  0
 24  8  1  0
 22 13  1  0
 22 17  1  0
M  END
>  <Compound_ID>  (681) 
CHEMBL1909379

>  <Molecule Name>  (681) 
nan

>  <Molecular Weight>  (681) 
387.87

>  <AlogP>  (681) 
4.84

>  <Smiles>  (681) 
c1ccc(Cc2nc3ccc(Nc4ncnc5ccccc45)cc3[nH]2)cc1

>  <Standard Type>  (681) 
Inhibition

>  <Standard Relation>  (681) 
'='

>  <Standard Units>  (681) 
%

>  <Standard Value>  (681) 
1.23

>  <Assay ChEMBL ID>  (681) 
CHEMBL1962240

>  <Assay Description>  (681) 
GSK_PKIS: ALK mean inhibition at 0.1 uM [Nanosyn]

>  <BAO Format ID>  (681) 
BAO_0000357

>  <BAO Label>  (681) 
single protein format

>  <Assay Organism>  (681) 
None

>  <Target ChEMBL ID>  (681) 
CHEMBL4247

>  <Target Name>  (681) 
ALK tyrosine kinase receptor

>  <Target Organism>  (681) 
Homo sapiens

>  <Target Type>  (681) 
SINGLE PROTEIN

>  <Document ChEMBL ID>  (681) 
CHEMBL1961873

>  <Source Description>  (681) 
GSK Published Kinase Inhibitor Set

>  <Document Journal>  (681) 
nan

>  <Document Year>  (681) 
nan

>  <Active>  (681) 
0.0

>  <bits>  (681) 
<rdkit.DataStructs.cDataStructs.ExplicitBitVect object at 0x000002422F16EB20>

>  <Group>  (681) 
G2

$$$$

     RDKit          2D

 18 19  0  0  0  0  0  0  0  0999 V2000
    4.5000   -2.5981    0.0000 C   0  0  0  0  0  0  0  0  0  0  0  0
    3.7500   -1.2990    0.0000 S   0  0  0  0  0  0  0  0  0  0  0  0
    2.4510   -2.0490    0.0000 O   0  0  0  0  0  0  0  0  0  0  0  0
    5.0490   -0.5490    0.0000 O   0  0  0  0  0  0  0  0  0  0  0  0
    3.0000    0.0000    0.0000 N   0  0  0  0  0  0  0  0  0  0  0  0
    1.5000    0.0000    0.0000 C   0  0  0  0  0  0  0  0  0  0  0  0
    0.7500   -1.2990    0.0000 C   0  0  0  0  0  0  0  0  0  0  0  0
   -0.7500   -1.2990    0.0000 C   0  0  0  0  0  0  0  0  0  0  0  0
   -1.5000    0.0000    0.0000 C   0  0  0  0  0  0  0  0  0  0  0  0
   -3.0000    0.0000    0.0000 O   0  0  0  0  0  0  0  0  0  0  0  0
   -0.7500    1.2990    0.0000 C   0  0  0  0  0  0  0  0  0  0  0  0
   -1.5000    2.5981    0.0000 S   0  0  0  0  0  0  0  0  0  0  0  0
   -0.7500    3.8971    0.0000 C   0  0  0  0  0  0  0  0  0  0  0  0
   -1.3601    5.2674    0.0000 N   0  0  0  0  0  0  0  0  0  0  0  0
   -0.2454    6.2711    0.0000 C   0  0  0  0  0  0  0  0  0  0  0  0
    1.0537    5.5211    0.0000 N   0  0  0  0  0  0  0  0  0  0  0  0
    0.7418    4.0539    0.0000 N   0  0  0  0  0  0  0  0  0  0  0  0
    0.7500    1.2990    0.0000 C   0  0  0  0  0  0  0  0  0  0  0  0
  1  2  1  0
  2  3  2  0
  2  4  2  0
  2  5  1  0
  5  6  1  0
  6  7  2  0
  7  8  1  0
  8  9  2  0
  9 10  1  0
  9 11  1  0
 11 12  1  0
 12 13  1  0
 13 14  2  0
 14 15  1  0
 15 16  2  0
 16 17  1  0
 11 18  2  0
 18  6  1  0
 17 13  1  0
M  END
>  <Compound_ID>  (682) 
CHEMBL2436726

>  <Molecule Name>  (682) 
nan

>  <Molecular Weight>  (682) 
286.34

>  <AlogP>  (682) 
1.03

>  <Smiles>  (682) 
CS(=O)(=O)Nc1ccc(O)c(Sc2ncn[nH]2)c1

>  <Standard Type>  (682) 
Inhibition

>  <Standard Relation>  (682) 
'='

>  <Standard Units>  (682) 
%

>  <Standard Value>  (682) 
15.86

>  <Assay ChEMBL ID>  (682) 
CHEMBL2438115

>  <Assay Description>  (682) 
Inhibition of ALK (unknown origin) at 10 uM after 30 mins by fluorescence assay relative to control

>  <BAO Format ID>  (682) 
BAO_0000357

>  <BAO Label>  (682) 
single protein format

>  <Assay Organism>  (682) 
Homo sapiens

>  <Target ChEMBL ID>  (682) 
CHEMBL4247

>  <Target Name>  (682) 
ALK tyrosine kinase receptor

>  <Target Organism>  (682) 
Homo sapiens

>  <Target Type>  (682) 
SINGLE PROTEIN

>  <Document ChEMBL ID>  (682) 
CHEMBL2434840

>  <Source Description>  (682) 
Scientific Literature

>  <Document Journal>  (682) 
Eur J Med Chem

>  <Document Year>  (682) 
2013.0

>  <Active>  (682) 
0.0

>  <bits>  (682) 
<rdkit.DataStructs.cDataStructs.ExplicitBitVect object at 0x000002422F16F840>

>  <Group>  (682) 
G2

$$$$

     RDKit          2D

 29 33  0  0  0  0  0  0  0  0999 V2000
   -0.0000   -5.1073    0.0000 O   0  0  0  0  0  0  0  0  0  0  0  0
   -0.0000   -3.6073    0.0000 C   0  0  0  0  0  0  0  0  0  0  0  0
    1.2135   -2.7256    0.0000 N   0  0  0  0  0  0  0  0  0  0  0  0
    0.7500   -1.2990    0.0000 C   0  0  0  0  0  0  0  0  0  0  0  0
    1.5000    0.0000    0.0000 C   0  0  0  0  0  0  0  0  0  0  0  0
    0.7500    1.2990    0.0000 C   0  0  0  0  0  0  0  0  0  0  0  0
   -0.7500    1.2990    0.0000 C   0  0  0  0  0  0  0  0  0  0  0  0
   -1.5000    0.0000    0.0000 C   0  0  0  0  0  0  0  0  0  0  0  0
   -0.7500   -1.2990    0.0000 C   0  0  0  0  0  0  0  0  0  0  0  0
   -1.2135   -2.7256    0.0000 C   0  0  0  0  0  0  0  0  0  0  0  0
   -2.6401   -3.1891    0.0000 C   0  0  0  0  0  0  0  0  0  0  0  0
   -3.8536   -2.3075    0.0000 C   0  0  0  0  0  0  0  0  0  0  0  0
   -3.8536   -0.8075    0.0000 O   0  0  0  0  0  0  0  0  0  0  0  0
   -5.0672   -3.1891    0.0000 N   0  0  0  0  0  0  0  0  0  0  0  0
   -6.4937   -2.7256    0.0000 C   0  0  0  0  0  0  0  0  0  0  0  0
   -6.8056   -1.2584    0.0000 C   0  0  0  0  0  0  0  0  0  0  0  0
   -8.2322   -0.7949    0.0000 C   0  0  0  0  0  0  0  0  0  0  0  0
   -8.5441    0.6723    0.0000 C   0  0  0  0  0  0  0  0  0  0  0  0
   -7.4293    1.6760    0.0000 C   0  0  0  0  0  0  0  0  0  0  0  0
   -7.7412    3.1433    0.0000 C   0  0  0  0  0  0  0  0  0  0  0  0
   -9.1678    3.6068    0.0000 C   0  0  0  0  0  0  0  0  0  0  0  0
  -10.2825    2.6031    0.0000 C   0  0  0  0  0  0  0  0  0  0  0  0
   -9.9707    1.1359    0.0000 C   0  0  0  0  0  0  0  0  0  0  0  0
   -4.6036   -4.6157    0.0000 C   0  0  0  0  0  0  0  0  0  0  0  0
   -5.3536   -5.9148    0.0000 C   0  0  0  0  0  0  0  0  0  0  0  0
   -4.6036   -7.2138    0.0000 C   0  0  0  0  0  0  0  0  0  0  0  0
   -3.1036   -7.2138    0.0000 C   0  0  0  0  0  0  0  0  0  0  0  0
   -2.3536   -5.9148    0.0000 C   0  0  0  0  0  0  0  0  0  0  0  0
   -3.1036   -4.6157    0.0000 C   0  0  0  0  0  0  0  0  0  0  0  0
  1  2  2  0
  2  3  1  0
  3  4  1  0
  4  5  2  0
  5  6  1  0
  6  7  2  0
  7  8  1  0
  8  9  2  0
  9 10  1  0
 10 11  2  0
 11 12  1  0
 12 13  2  0
 12 14  1  0
 14 15  1  0
 15 16  1  0
 16 17  1  0
 17 18  1  0
 18 19  2  0
 19 20  1  0
 20 21  2  0
 21 22  1  0
 22 23  2  0
 14 24  1  0
 24 25  2  0
 25 26  1  0
 26 27  2  0
 27 28  1  0
 28 29  2  0
 10  2  1  0
 29 11  1  0
  9  4  1  0
 23 18  1  0
 29 24  1  0
M  END
>  <Compound_ID>  (683) 
CHEMBL607196

>  <Molecule Name>  (683) 
nan

>  <Molecular Weight>  (683) 
380.45

>  <AlogP>  (683) 
4.53

>  <Smiles>  (683) 
O=C1Nc2ccccc2/C1=C1\C(=O)N(CCCc2ccccc2)c2ccccc21

>  <Standard Type>  (683) 
Inhibition

>  <Standard Relation>  (683) 
'='

>  <Standard Units>  (683) 
%

>  <Standard Value>  (683) 
0.0

>  <Assay ChEMBL ID>  (683) 
CHEMBL1068652

>  <Assay Description>  (683) 
Inhibition of ALK at 10 uM

>  <BAO Format ID>  (683) 
BAO_0000357

>  <BAO Label>  (683) 
single protein format

>  <Assay Organism>  (683) 
None

>  <Target ChEMBL ID>  (683) 
CHEMBL4247

>  <Target Name>  (683) 
ALK tyrosine kinase receptor

>  <Target Organism>  (683) 
Homo sapiens

>  <Target Type>  (683) 
SINGLE PROTEIN

>  <Document ChEMBL ID>  (683) 
CHEMBL1152632

>  <Source Description>  (683) 
Scientific Literature

>  <Document Journal>  (683) 
Bioorg Med Chem

>  <Document Year>  (683) 
2009.0

>  <Active>  (683) 
0.0

>  <bits>  (683) 
<rdkit.DataStructs.cDataStructs.ExplicitBitVect object at 0x000002422F16E260>

>  <Group>  (683) 
G2

$$$$

     RDKit          2D

 26 29  0  0  0  0  0  0  0  0999 V2000
    3.0000    0.0000    0.0000 C   0  0  0  0  0  0  0  0  0  0  0  0
    1.5000    0.0000    0.0000 N   0  0  0  0  0  0  0  0  0  0  0  0
    0.7500   -1.2990    0.0000 C   0  0  0  0  0  0  0  0  0  0  0  0
   -0.7500   -1.2990    0.0000 C   0  0  0  0  0  0  0  0  0  0  0  0
   -1.5000    0.0000    0.0000 C   0  0  0  0  0  0  0  0  0  0  0  0
   -3.0000    0.0000    0.0000 N   0  0  0  0  0  0  0  0  0  0  0  0
   -3.8817   -1.2135    0.0000 C   0  0  0  0  0  0  0  0  0  0  0  0
   -5.3083   -0.7500    0.0000 N   0  0  0  0  0  0  0  0  0  0  0  0
   -5.3083    0.7500    0.0000 C   0  0  0  0  0  0  0  0  0  0  0  0
   -6.5218    1.6317    0.0000 C   0  0  0  0  0  0  0  0  0  0  0  0
   -6.3650    3.1235    0.0000 C   0  0  0  0  0  0  0  0  0  0  0  0
   -7.5785    4.0051    0.0000 C   0  0  0  0  0  0  0  0  0  0  0  0
   -8.9488    3.3950    0.0000 C   0  0  0  0  0  0  0  0  0  0  0  0
  -10.1624    4.2767    0.0000 F   0  0  0  0  0  0  0  0  0  0  0  0
   -9.1056    1.9033    0.0000 C   0  0  0  0  0  0  0  0  0  0  0  0
   -7.8921    1.0216    0.0000 C   0  0  0  0  0  0  0  0  0  0  0  0
   -3.8817    1.2135    0.0000 C   0  0  0  0  0  0  0  0  0  0  0  0
   -3.4182    2.6401    0.0000 C   0  0  0  0  0  0  0  0  0  0  0  0
   -1.9509    2.9520    0.0000 C   0  0  0  0  0  0  0  0  0  0  0  0
   -1.4874    4.3786    0.0000 C   0  0  0  0  0  0  0  0  0  0  0  0
   -2.4911    5.4933    0.0000 N   0  0  0  0  0  0  0  0  0  0  0  0
   -3.9583    5.1814    0.0000 C   0  0  0  0  0  0  0  0  0  0  0  0
   -4.9620    6.2961    0.0000 N   0  0  0  0  0  0  0  0  0  0  0  0
   -4.4218    3.7548    0.0000 N   0  0  0  0  0  0  0  0  0  0  0  0
   -0.7500    1.2990    0.0000 C   0  0  0  0  0  0  0  0  0  0  0  0
    0.7500    1.2990    0.0000 C   0  0  0  0  0  0  0  0  0  0  0  0
  1  2  1  0
  2  3  1  0
  3  4  1  0
  4  5  1  0
  5  6  1  0
  6  7  1  0
  7  8  2  0
  8  9  1  0
  9 10  1  0
 10 11  2  0
 11 12  1  0
 12 13  2  0
 13 14  1  0
 13 15  1  0
 15 16  2  0
  9 17  2  0
 17 18  1  0
 18 19  2  0
 19 20  1  0
 20 21  2  0
 21 22  1  0
 22 23  1  0
 22 24  2  0
  5 25  1  0
 25 26  1  0
 26  2  1  0
 17  6  1  0
 24 18  1  0
 16 10  1  0
M  END
>  <Compound_ID>  (684) 
CHEMBL95207

>  <Molecule Name>  (684) 
nan

>  <Molecular Weight>  (684) 
352.42

>  <AlogP>  (684) 
3.0

>  <Smiles>  (684) 
CN1CCC(n2cnc(-c3ccc(F)cc3)c2-c2ccnc(N)n2)CC1

>  <Standard Type>  (684) 
Inhibition

>  <Standard Relation>  (684) 
'='

>  <Standard Units>  (684) 
%

>  <Standard Value>  (684) 
1.26

>  <Assay ChEMBL ID>  (684) 
CHEMBL1962240

>  <Assay Description>  (684) 
GSK_PKIS: ALK mean inhibition at 0.1 uM [Nanosyn]

>  <BAO Format ID>  (684) 
BAO_0000357

>  <BAO Label>  (684) 
single protein format

>  <Assay Organism>  (684) 
None

>  <Target ChEMBL ID>  (684) 
CHEMBL4247

>  <Target Name>  (684) 
ALK tyrosine kinase receptor

>  <Target Organism>  (684) 
Homo sapiens

>  <Target Type>  (684) 
SINGLE PROTEIN

>  <Document ChEMBL ID>  (684) 
CHEMBL1961873

>  <Source Description>  (684) 
GSK Published Kinase Inhibitor Set

>  <Document Journal>  (684) 
nan

>  <Document Year>  (684) 
nan

>  <Active>  (684) 
0.0

>  <bits>  (684) 
<rdkit.DataStructs.cDataStructs.ExplicitBitVect object at 0x000002422F16D850>

>  <Group>  (684) 
G2

$$$$

     RDKit          2D

 44 48  0  0  0  0  0  0  0  0999 V2000
   -2.8273  -15.9716    0.0000 C   0  0  0  0  0  0  0  0  0  0  0  0
   -1.3601  -15.6597    0.0000 C   0  0  0  0  0  0  0  0  0  0  0  0
   -0.2454  -16.6634    0.0000 C   0  0  0  0  0  0  0  0  0  0  0  0
    1.0537  -15.9134    0.0000 N   0  0  0  0  0  0  0  0  0  0  0  0
    0.7418  -14.4462    0.0000 C   0  0  0  0  0  0  0  0  0  0  0  0
   -0.7500  -14.2894    0.0000 N   0  0  0  0  0  0  0  0  0  0  0  0
   -1.5000  -12.9904    0.0000 C   0  0  0  0  0  0  0  0  0  0  0  0
   -0.7500  -11.6913    0.0000 C   0  0  0  0  0  0  0  0  0  0  0  0
   -1.5000  -10.3923    0.0000 C   0  0  0  0  0  0  0  0  0  0  0  0
   -0.7500   -9.0933    0.0000 C   0  0  0  0  0  0  0  0  0  0  0  0
   -1.5000   -7.7942    0.0000 O   0  0  0  0  0  0  0  0  0  0  0  0
    0.7500   -9.0933    0.0000 N   0  0  0  0  0  0  0  0  0  0  0  0
    1.5000   -7.7942    0.0000 C   0  0  0  0  0  0  0  0  0  0  0  0
    3.0000   -7.7942    0.0000 C   0  0  0  0  0  0  0  0  0  0  0  0
    3.7500   -6.4952    0.0000 C   0  0  0  0  0  0  0  0  0  0  0  0
    3.0000   -5.1962    0.0000 C   0  0  0  0  0  0  0  0  0  0  0  0
    1.5000   -5.1962    0.0000 C   0  0  0  0  0  0  0  0  0  0  0  0
    0.7500   -3.8971    0.0000 C   0  0  0  0  0  0  0  0  0  0  0  0
    1.5000   -2.5981    0.0000 N   0  0  0  0  0  0  0  0  0  0  0  0
    0.7500   -1.2990    0.0000 C   0  0  0  0  0  0  0  0  0  0  0  0
    1.5000    0.0000    0.0000 C   0  0  0  0  0  0  0  0  0  0  0  0
    0.7500    1.2990    0.0000 C   0  0  0  0  0  0  0  0  0  0  0  0
   -0.7500    1.2990    0.0000 C   0  0  0  0  0  0  0  0  0  0  0  0
   -1.7537    2.4138    0.0000 C   0  0  0  0  0  0  0  0  0  0  0  0
   -1.4418    3.8810    0.0000 C   0  0  0  0  0  0  0  0  0  0  0  0
   -0.0152    4.3445    0.0000 O   0  0  0  0  0  0  0  0  0  0  0  0
   -2.5565    4.8847    0.0000 N   0  0  0  0  0  0  0  0  0  0  0  0
   -2.2447    6.3519    0.0000 C   0  0  0  0  0  0  0  0  0  0  0  0
   -3.3594    7.3556    0.0000 C   0  0  0  0  0  0  0  0  0  0  0  0
   -0.8181    6.8154    0.0000 C   0  0  0  0  0  0  0  0  0  0  0  0
   -0.5062    8.2826    0.0000 N   0  0  0  0  0  0  0  0  0  0  0  0
    0.2966    5.8117    0.0000 O   0  0  0  0  0  0  0  0  0  0  0  0
   -3.1240    1.8037    0.0000 N   0  0  0  0  0  0  0  0  0  0  0  0
   -2.9672    0.3119    0.0000 N   0  0  0  0  0  0  0  0  0  0  0  0
   -1.5000    0.0000    0.0000 C   0  0  0  0  0  0  0  0  0  0  0  0
   -0.7500   -1.2990    0.0000 C   0  0  0  0  0  0  0  0  0  0  0  0
    0.7500   -6.4952    0.0000 C   0  0  0  0  0  0  0  0  0  0  0  0
   -3.0000  -10.3923    0.0000 C   0  0  0  0  0  0  0  0  0  0  0  0
   -3.7500  -11.6913    0.0000 C   0  0  0  0  0  0  0  0  0  0  0  0
   -5.2500  -11.6913    0.0000 C   0  0  0  0  0  0  0  0  0  0  0  0
   -6.7500  -11.6913    0.0000 F   0  0  0  0  0  0  0  0  0  0  0  0
   -5.2500  -10.1913    0.0000 F   0  0  0  0  0  0  0  0  0  0  0  0
   -5.2500  -13.1913    0.0000 F   0  0  0  0  0  0  0  0  0  0  0  0
   -3.0000  -12.9904    0.0000 C   0  0  0  0  0  0  0  0  0  0  0  0
  1  2  1  0
  2  3  2  0
  3  4  1  0
  4  5  2  0
  5  6  1  0
  6  7  1  0
  7  8  2  0
  8  9  1  0
  9 10  1  0
 10 11  2  0
 10 12  1  0
 12 13  1  0
 13 14  2  0
 14 15  1  0
 15 16  2  0
 16 17  1  0
 17 18  1  0
 18 19  1  0
 19 20  1  0
 20 21  1  0
 21 22  2  0
 22 23  1  0
 23 24  2  0
 24 25  1  0
 25 26  2  0
 25 27  1  0
 27 28  1  0
 28 29  1  1
 28 30  1  0
 30 31  1  0
 30 32  2  0
 24 33  1  0
 33 34  1  0
 34 35  2  0
 35 36  1  0
 17 37  2  0
  9 38  2  0
 38 39  1  0
 39 40  1  0
 40 41  1  0
 40 42  1  0
 40 43  1  0
 39 44  2  0
  6  2  1  0
 44  7  1  0
 37 13  1  0
 36 20  2  0
 35 23  1  0
M  END
>  <Compound_ID>  (685) 
CHEMBL3764798

>  <Molecule Name>  (685) 
nan

>  <Molecular Weight>  (685) 
604.59

>  <AlogP>  (685) 
4.54

>  <Smiles>  (685) 
Cc1cncn1-c1cc(C(=O)Nc2cccc(CNc3ccc4c(C(=O)N[C@@H](C)C(N)=O)[nH]nc4c3)c2)cc(C(F)(F)F)c1

>  <Standard Type>  (685) 
Inhibition

>  <Standard Relation>  (685) 
'='

>  <Standard Units>  (685) 
%

>  <Standard Value>  (685) 
0.0

>  <Assay ChEMBL ID>  (685) 
CHEMBL3768033

>  <Assay Description>  (685) 
Inhibition of human ALK at 10 uM

>  <BAO Format ID>  (685) 
BAO_0000357

>  <BAO Label>  (685) 
single protein format

>  <Assay Organism>  (685) 
Homo sapiens

>  <Target ChEMBL ID>  (685) 
CHEMBL4247

>  <Target Name>  (685) 
ALK tyrosine kinase receptor

>  <Target Organism>  (685) 
Homo sapiens

>  <Target Type>  (685) 
SINGLE PROTEIN

>  <Document ChEMBL ID>  (685) 
CHEMBL3763132

>  <Source Description>  (685) 
Scientific Literature

>  <Document Journal>  (685) 
Bioorg Med Chem Lett

>  <Document Year>  (685) 
2016.0

>  <Active>  (685) 
0.0

>  <bits>  (685) 
<rdkit.DataStructs.cDataStructs.ExplicitBitVect object at 0x000002422F1EADC0>

>  <Group>  (685) 
G2

$$$$

     RDKit          2D

 36 39  0  0  0  0  0  0  0  0999 V2000
   -2.5981   -8.1073    0.0000 C   0  0  0  0  0  0  0  0  0  0  0  0
   -1.2990   -7.3573    0.0000 O   0  0  0  0  0  0  0  0  0  0  0  0
   -1.2990   -5.8573    0.0000 C   0  0  0  0  0  0  0  0  0  0  0  0
   -2.5981   -5.1073    0.0000 O   0  0  0  0  0  0  0  0  0  0  0  0
   -0.0000   -5.1073    0.0000 N   0  0  0  0  0  0  0  0  0  0  0  0
   -0.0000   -3.6073    0.0000 C   0  0  0  0  0  0  0  0  0  0  0  0
    1.2135   -2.7256    0.0000 N   0  0  0  0  0  0  0  0  0  0  0  0
    0.7500   -1.2990    0.0000 C   0  0  0  0  0  0  0  0  0  0  0  0
    1.5000    0.0000    0.0000 C   0  0  0  0  0  0  0  0  0  0  0  0
    0.7500    1.2990    0.0000 C   0  0  0  0  0  0  0  0  0  0  0  0
   -0.7500    1.2990    0.0000 C   0  0  0  0  0  0  0  0  0  0  0  0
   -1.5000    2.5981    0.0000 O   0  0  0  0  0  0  0  0  0  0  0  0
   -0.7500    3.8971    0.0000 C   0  0  0  0  0  0  0  0  0  0  0  0
    0.7500    3.8971    0.0000 C   0  0  0  0  0  0  0  0  0  0  0  0
    1.5000    5.1962    0.0000 C   0  0  0  0  0  0  0  0  0  0  0  0
    0.7500    6.4952    0.0000 C   0  0  0  0  0  0  0  0  0  0  0  0
    1.5000    7.7942    0.0000 N   0  0  0  0  0  0  0  0  0  0  0  0
    3.0000    7.7942    0.0000 C   0  0  0  0  0  0  0  0  0  0  0  0
    3.7500    6.4952    0.0000 O   0  0  0  0  0  0  0  0  0  0  0  0
    3.7500    9.0933    0.0000 N   0  0  0  0  0  0  0  0  0  0  0  0
    5.2500    9.0933    0.0000 C   0  0  0  0  0  0  0  0  0  0  0  0
    6.0000    7.7942    0.0000 C   0  0  0  0  0  0  0  0  0  0  0  0
    7.5000    7.7942    0.0000 C   0  0  0  0  0  0  0  0  0  0  0  0
    8.2500    6.4952    0.0000 C   0  0  0  0  0  0  0  0  0  0  0  0
    9.0000    5.1962    0.0000 F   0  0  0  0  0  0  0  0  0  0  0  0
    6.9510    5.7452    0.0000 F   0  0  0  0  0  0  0  0  0  0  0  0
    9.5490    7.2452    0.0000 F   0  0  0  0  0  0  0  0  0  0  0  0
    8.2500    9.0933    0.0000 C   0  0  0  0  0  0  0  0  0  0  0  0
    7.5000   10.3923    0.0000 C   0  0  0  0  0  0  0  0  0  0  0  0
    6.0000   10.3923    0.0000 C   0  0  0  0  0  0  0  0  0  0  0  0
    5.2500   11.6913    0.0000 F   0  0  0  0  0  0  0  0  0  0  0  0
   -0.7500    6.4952    0.0000 C   0  0  0  0  0  0  0  0  0  0  0  0
   -1.5000    5.1962    0.0000 C   0  0  0  0  0  0  0  0  0  0  0  0
   -1.5000    0.0000    0.0000 C   0  0  0  0  0  0  0  0  0  0  0  0
   -0.7500   -1.2990    0.0000 C   0  0  0  0  0  0  0  0  0  0  0  0
   -1.2135   -2.7256    0.0000 S   0  0  0  0  0  0  0  0  0  0  0  0
  1  2  1  0
  2  3  1  0
  3  4  2  0
  3  5  1  0
  5  6  1  0
  6  7  2  0
  7  8  1  0
  8  9  2  0
  9 10  1  0
 10 11  2  0
 11 12  1  0
 12 13  1  0
 13 14  2  0
 14 15  1  0
 15 16  2  0
 16 17  1  0
 17 18  1  0
 18 19  2  0
 18 20  1  0
 20 21  1  0
 21 22  2  0
 22 23  1  0
 23 24  1  0
 24 25  1  0
 24 26  1  0
 24 27  1  0
 23 28  2  0
 28 29  1  0
 29 30  2  0
 30 31  1  0
 16 32  1  0
 32 33  2  0
 11 34  1  0
 34 35  2  0
 35 36  1  0
 36  6  1  0
 35  8  1  0
 33 13  1  0
 30 21  1  0
M  END
>  <Compound_ID>  (686) 
CHEMBL1909369

>  <Molecule Name>  (686) 
GW693917A

>  <Molecular Weight>  (686) 
556.93

>  <AlogP>  (686) 
7.07

>  <Smiles>  (686) 
COC(=O)Nc1nc2ccc(Oc3ccc(NC(=O)Nc4cc(C(F)(F)F)ccc4F)cc3)cc2s1

>  <Standard Type>  (686) 
Inhibition

>  <Standard Relation>  (686) 
'='

>  <Standard Units>  (686) 
%

>  <Standard Value>  (686) 
0.95

>  <Assay ChEMBL ID>  (686) 
CHEMBL1962240

>  <Assay Description>  (686) 
GSK_PKIS: ALK mean inhibition at 0.1 uM [Nanosyn]

>  <BAO Format ID>  (686) 
BAO_0000357

>  <BAO Label>  (686) 
single protein format

>  <Assay Organism>  (686) 
None

>  <Target ChEMBL ID>  (686) 
CHEMBL4247

>  <Target Name>  (686) 
ALK tyrosine kinase receptor

>  <Target Organism>  (686) 
Homo sapiens

>  <Target Type>  (686) 
SINGLE PROTEIN

>  <Document ChEMBL ID>  (686) 
CHEMBL1961873

>  <Source Description>  (686) 
GSK Published Kinase Inhibitor Set

>  <Document Journal>  (686) 
nan

>  <Document Year>  (686) 
nan

>  <Active>  (686) 
0.0

>  <bits>  (686) 
<rdkit.DataStructs.cDataStructs.ExplicitBitVect object at 0x000002422F1E8430>

>  <Group>  (686) 
G2

$$$$

     RDKit          2D

 39 43  0  0  0  0  0  0  0  0999 V2000
   -1.2990  -10.3573    0.0000 C   0  0  0  0  0  0  0  0  0  0  0  0
    0.0000   -9.6073    0.0000 O   0  0  0  0  0  0  0  0  0  0  0  0
    0.0000   -8.1073    0.0000 C   0  0  0  0  0  0  0  0  0  0  0  0
   -1.2990   -7.3573    0.0000 C   0  0  0  0  0  0  0  0  0  0  0  0
   -1.2990   -5.8573    0.0000 C   0  0  0  0  0  0  0  0  0  0  0  0
   -0.0000   -5.1073    0.0000 C   0  0  0  0  0  0  0  0  0  0  0  0
   -0.0000   -3.6073    0.0000 C   0  0  0  0  0  0  0  0  0  0  0  0
    1.2135   -2.7256    0.0000 O   0  0  0  0  0  0  0  0  0  0  0  0
    0.7500   -1.2990    0.0000 C   0  0  0  0  0  0  0  0  0  0  0  0
    1.5000    0.0000    0.0000 N   0  0  0  0  0  0  0  0  0  0  0  0
    0.7500    1.2990    0.0000 C   0  0  0  0  0  0  0  0  0  0  0  0
   -0.7500    1.2990    0.0000 N   0  0  0  0  0  0  0  0  0  0  0  0
   -1.5000    0.0000    0.0000 C   0  0  0  0  0  0  0  0  0  0  0  0
   -3.0000    0.0000    0.0000 N   0  0  0  0  0  0  0  0  0  0  0  0
   -0.7500   -1.2990    0.0000 C   0  0  0  0  0  0  0  0  0  0  0  0
   -1.2135   -2.7256    0.0000 C   0  0  0  0  0  0  0  0  0  0  0  0
   -2.6401   -3.1891    0.0000 C   0  0  0  0  0  0  0  0  0  0  0  0
   -3.7548   -2.1855    0.0000 C   0  0  0  0  0  0  0  0  0  0  0  0
   -5.1814   -2.6490    0.0000 C   0  0  0  0  0  0  0  0  0  0  0  0
   -5.4933   -4.1162    0.0000 C   0  0  0  0  0  0  0  0  0  0  0  0
   -6.9199   -4.5797    0.0000 N   0  0  0  0  0  0  0  0  0  0  0  0
   -8.0346   -3.5760    0.0000 C   0  0  0  0  0  0  0  0  0  0  0  0
   -7.7227   -2.1088    0.0000 O   0  0  0  0  0  0  0  0  0  0  0  0
   -9.4612   -4.0396    0.0000 N   0  0  0  0  0  0  0  0  0  0  0  0
  -10.5759   -3.0359    0.0000 C   0  0  0  0  0  0  0  0  0  0  0  0
  -10.2640   -1.5686    0.0000 C   0  0  0  0  0  0  0  0  0  0  0  0
  -11.3787   -0.5649    0.0000 C   0  0  0  0  0  0  0  0  0  0  0  0
  -11.0669    0.9023    0.0000 C   0  0  0  0  0  0  0  0  0  0  0  0
  -10.7550    2.3695    0.0000 F   0  0  0  0  0  0  0  0  0  0  0  0
   -9.5996    0.5904    0.0000 F   0  0  0  0  0  0  0  0  0  0  0  0
  -12.5341    1.2141    0.0000 F   0  0  0  0  0  0  0  0  0  0  0  0
  -12.8053   -1.0285    0.0000 C   0  0  0  0  0  0  0  0  0  0  0  0
  -13.1172   -2.4957    0.0000 C   0  0  0  0  0  0  0  0  0  0  0  0
  -12.0025   -3.4994    0.0000 C   0  0  0  0  0  0  0  0  0  0  0  0
  -12.3143   -4.9666    0.0000 F   0  0  0  0  0  0  0  0  0  0  0  0
   -4.3786   -5.1199    0.0000 C   0  0  0  0  0  0  0  0  0  0  0  0
   -2.9520   -4.6564    0.0000 C   0  0  0  0  0  0  0  0  0  0  0  0
    1.2990   -5.8573    0.0000 C   0  0  0  0  0  0  0  0  0  0  0  0
    1.2990   -7.3573    0.0000 C   0  0  0  0  0  0  0  0  0  0  0  0
  1  2  1  0
  2  3  1  0
  3  4  2  0
  4  5  1  0
  5  6  2  0
  6  7  1  0
  7  8  1  0
  8  9  1  0
  9 10  2  0
 10 11  1  0
 11 12  2  0
 12 13  1  0
 13 14  1  0
 13 15  2  0
 15 16  1  0
 16 17  1  0
 17 18  2  0
 18 19  1  0
 19 20  2  0
 20 21  1  0
 21 22  1  0
 22 23  2  0
 22 24  1  0
 24 25  1  0
 25 26  2  0
 26 27  1  0
 27 28  1  0
 28 29  1  0
 28 30  1  0
 28 31  1  0
 27 32  2  0
 32 33  1  0
 33 34  2  0
 34 35  1  0
 20 36  1  0
 36 37  2  0
  6 38  1  0
 38 39  2  0
 39  3  1  0
 16  7  2  0
 37 17  1  0
 15  9  1  0
 34 25  1  0
M  END
>  <Compound_ID>  (687) 
CHEMBL1909396

>  <Molecule Name>  (687) 
GW768505A

>  <Molecular Weight>  (687) 
573.93

>  <AlogP>  (687) 
6.95

>  <Smiles>  (687) 
COc1ccc(-c2oc3ncnc(N)c3c2-c2ccc(NC(=O)Nc3cc(C(F)(F)F)ccc3F)cc2)cc1

>  <Standard Type>  (687) 
Inhibition

>  <Standard Relation>  (687) 
'='

>  <Standard Units>  (687) 
%

>  <Standard Value>  (687) 
8.5

>  <Assay ChEMBL ID>  (687) 
CHEMBL1962241

>  <Assay Description>  (687) 
GSK_PKIS: ALK mean inhibition at 1 uM [Nanosyn]

>  <BAO Format ID>  (687) 
BAO_0000357

>  <BAO Label>  (687) 
single protein format

>  <Assay Organism>  (687) 
None

>  <Target ChEMBL ID>  (687) 
CHEMBL4247

>  <Target Name>  (687) 
ALK tyrosine kinase receptor

>  <Target Organism>  (687) 
Homo sapiens

>  <Target Type>  (687) 
SINGLE PROTEIN

>  <Document ChEMBL ID>  (687) 
CHEMBL1961873

>  <Source Description>  (687) 
GSK Published Kinase Inhibitor Set

>  <Document Journal>  (687) 
nan

>  <Document Year>  (687) 
nan

>  <Active>  (687) 
0.0

>  <bits>  (687) 
<rdkit.DataStructs.cDataStructs.ExplicitBitVect object at 0x000002422F1EA7A0>

>  <Group>  (687) 
G2

$$$$

     RDKit          2D

 32 35  0  0  0  0  0  0  0  0999 V2000
    3.0000    0.0000    0.0000 N   0  0  0  0  0  0  0  0  0  0  0  0
    1.5000    0.0000    0.0000 C   0  0  0  0  0  0  0  0  0  0  0  0
    0.7500   -1.2990    0.0000 N   0  0  0  0  0  0  0  0  0  0  0  0
   -0.7500   -1.2990    0.0000 C   0  0  0  0  0  0  0  0  0  0  0  0
   -1.5000    0.0000    0.0000 C   0  0  0  0  0  0  0  0  0  0  0  0
   -0.7500    1.2990    0.0000 C   0  0  0  0  0  0  0  0  0  0  0  0
   -1.5000    2.5981    0.0000 C   0  0  0  0  0  0  0  0  0  0  0  0
   -2.2500    3.8971    0.0000 C   0  0  0  0  0  0  0  0  0  0  0  0
   -3.0000    5.1962    0.0000 C   0  0  0  0  0  0  0  0  0  0  0  0
   -2.2500    6.4952    0.0000 C   0  0  0  0  0  0  0  0  0  0  0  0
   -3.0000    7.7942    0.0000 N   0  0  0  0  0  0  0  0  0  0  0  0
   -4.5000    7.7942    0.0000 C   0  0  0  0  0  0  0  0  0  0  0  0
   -5.2500    6.4952    0.0000 N   0  0  0  0  0  0  0  0  0  0  0  0
   -4.5000    5.1962    0.0000 C   0  0  0  0  0  0  0  0  0  0  0  0
   -5.2500    3.8971    0.0000 N   0  0  0  0  0  0  0  0  0  0  0  0
   -6.7500    3.8971    0.0000 C   0  0  0  0  0  0  0  0  0  0  0  0
   -7.5000    5.1962    0.0000 C   0  0  0  0  0  0  0  0  0  0  0  0
   -9.0000    5.1962    0.0000 C   0  0  0  0  0  0  0  0  0  0  0  0
   -9.7500    3.8971    0.0000 C   0  0  0  0  0  0  0  0  0  0  0  0
  -11.2500    3.8971    0.0000 O   0  0  0  0  0  0  0  0  0  0  0  0
  -12.0000    5.1962    0.0000 C   0  0  0  0  0  0  0  0  0  0  0  0
  -13.5000    5.1962    0.0000 C   0  0  0  0  0  0  0  0  0  0  0  0
  -14.2500    6.4952    0.0000 C   0  0  0  0  0  0  0  0  0  0  0  0
  -15.7500    6.4952    0.0000 C   0  0  0  0  0  0  0  0  0  0  0  0
  -16.5000    5.1962    0.0000 C   0  0  0  0  0  0  0  0  0  0  0  0
  -15.7500    3.8971    0.0000 C   0  0  0  0  0  0  0  0  0  0  0  0
  -16.5000    2.5981    0.0000 F   0  0  0  0  0  0  0  0  0  0  0  0
  -14.2500    3.8971    0.0000 C   0  0  0  0  0  0  0  0  0  0  0  0
   -9.0000    2.5981    0.0000 C   0  0  0  0  0  0  0  0  0  0  0  0
   -9.7500    1.2990    0.0000 Cl  0  0  0  0  0  0  0  0  0  0  0  0
   -7.5000    2.5981    0.0000 C   0  0  0  0  0  0  0  0  0  0  0  0
    0.7500    1.2990    0.0000 N   0  0  0  0  0  0  0  0  0  0  0  0
  1  2  1  0
  2  3  2  0
  3  4  1  0
  4  5  2  0
  5  6  1  0
  6  7  1  0
  7  8  3  0
  8  9  1  0
  9 10  2  0
 10 11  1  0
 11 12  2  0
 12 13  1  0
 13 14  2  0
 14 15  1  0
 15 16  1  0
 16 17  2  0
 17 18  1  0
 18 19  2  0
 19 20  1  0
 20 21  1  0
 21 22  1  0
 22 23  2  0
 23 24  1  0
 24 25  2  0
 25 26  1  0
 26 27  1  0
 26 28  2  0
 19 29  1  0
 29 30  1  0
 29 31  2  0
  6 32  2  0
 32  2  1  0
 14  9  1  0
 31 16  1  0
 28 22  1  0
M  END
>  <Compound_ID>  (688) 
CHEMBL381604

>  <Molecule Name>  (688) 
GW799251X

>  <Molecular Weight>  (688) 
446.87

>  <AlogP>  (688) 
4.36

>  <Smiles>  (688) 
Nc1nccc(C#Cc2cncnc2Nc2ccc(OCc3cccc(F)c3)c(Cl)c2)n1

>  <Standard Type>  (688) 
Inhibition

>  <Standard Relation>  (688) 
'='

>  <Standard Units>  (688) 
%

>  <Standard Value>  (688) 
3.59

>  <Assay ChEMBL ID>  (688) 
CHEMBL1962240

>  <Assay Description>  (688) 
GSK_PKIS: ALK mean inhibition at 0.1 uM [Nanosyn]

>  <BAO Format ID>  (688) 
BAO_0000357

>  <BAO Label>  (688) 
single protein format

>  <Assay Organism>  (688) 
None

>  <Target ChEMBL ID>  (688) 
CHEMBL4247

>  <Target Name>  (688) 
ALK tyrosine kinase receptor

>  <Target Organism>  (688) 
Homo sapiens

>  <Target Type>  (688) 
SINGLE PROTEIN

>  <Document ChEMBL ID>  (688) 
CHEMBL1961873

>  <Source Description>  (688) 
GSK Published Kinase Inhibitor Set

>  <Document Journal>  (688) 
nan

>  <Document Year>  (688) 
nan

>  <Active>  (688) 
0.0

>  <bits>  (688) 
<rdkit.DataStructs.cDataStructs.ExplicitBitVect object at 0x000002422F1EB060>

>  <Group>  (688) 
G2

$$$$

     RDKit          2D

 24 27  0  0  0  0  0  0  0  0999 V2000
    3.0000    0.0000    0.0000 F   0  0  0  0  0  0  0  0  0  0  0  0
    1.5000    0.0000    0.0000 C   0  0  0  0  0  0  0  0  0  0  0  0
    0.7500   -1.2990    0.0000 C   0  0  0  0  0  0  0  0  0  0  0  0
   -0.7500   -1.2990    0.0000 C   0  0  0  0  0  0  0  0  0  0  0  0
   -1.5000    0.0000    0.0000 C   0  0  0  0  0  0  0  0  0  0  0  0
   -3.0000    0.0000    0.0000 C   0  0  0  0  0  0  0  0  0  0  0  0
   -3.7500    1.2990    0.0000 C   0  0  0  0  0  0  0  0  0  0  0  0
   -5.2500    1.2990    0.0000 C   0  0  0  0  0  0  0  0  0  0  0  0
   -6.0000    2.5981    0.0000 C   0  0  0  0  0  0  0  0  0  0  0  0
   -7.4918    2.7549    0.0000 C   0  0  0  0  0  0  0  0  0  0  0  0
   -7.8037    4.2221    0.0000 N   0  0  0  0  0  0  0  0  0  0  0  0
   -6.5046    4.9721    0.0000 N   0  0  0  0  0  0  0  0  0  0  0  0
   -5.3899    3.9684    0.0000 C   0  0  0  0  0  0  0  0  0  0  0  0
   -3.9227    4.2803    0.0000 C   0  0  0  0  0  0  0  0  0  0  0  0
   -2.9190    3.1655    0.0000 C   0  0  0  0  0  0  0  0  0  0  0  0
   -1.4518    3.4774    0.0000 C   0  0  0  0  0  0  0  0  0  0  0  0
   -0.9882    4.9040    0.0000 C   0  0  0  0  0  0  0  0  0  0  0  0
   -1.9919    6.0187    0.0000 C   0  0  0  0  0  0  0  0  0  0  0  0
   -3.4591    5.7068    0.0000 N   0  0  0  0  0  0  0  0  0  0  0  0
   -6.0000    0.0000    0.0000 C   0  0  0  0  0  0  0  0  0  0  0  0
   -5.2500   -1.2990    0.0000 C   0  0  0  0  0  0  0  0  0  0  0  0
   -3.7500   -1.2990    0.0000 N   0  0  0  0  0  0  0  0  0  0  0  0
   -0.7500    1.2990    0.0000 C   0  0  0  0  0  0  0  0  0  0  0  0
    0.7500    1.2990    0.0000 C   0  0  0  0  0  0  0  0  0  0  0  0
  1  2  1  0
  2  3  2  0
  3  4  1  0
  4  5  2  0
  5  6  1  0
  6  7  2  0
  7  8  1  0
  8  9  1  0
  9 10  2  0
 10 11  1  0
 11 12  1  0
 12 13  2  0
 13 14  1  0
 14 15  2  0
 15 16  1  0
 16 17  2  0
 17 18  1  0
 18 19  2  0
  8 20  2  0
 20 21  1  0
 21 22  2  0
  5 23  1  0
 23 24  2  0
 24  2  1  0
 22  6  1  0
 13  9  1  0
 19 14  1  0
M  END
>  <Compound_ID>  (689) 
CHEMBL381948

>  <Molecule Name>  (689) 
GW680975X

>  <Molecular Weight>  (689) 
316.34

>  <AlogP>  (689) 
4.34

>  <Smiles>  (689) 
Fc1ccc(-c2cc(-c3c[nH]nc3-c3ccccn3)ccn2)cc1

>  <Standard Type>  (689) 
Inhibition

>  <Standard Relation>  (689) 
'='

>  <Standard Units>  (689) 
%

>  <Standard Value>  (689) 
4.07

>  <Assay ChEMBL ID>  (689) 
CHEMBL1962240

>  <Assay Description>  (689) 
GSK_PKIS: ALK mean inhibition at 0.1 uM [Nanosyn]

>  <BAO Format ID>  (689) 
BAO_0000357

>  <BAO Label>  (689) 
single protein format

>  <Assay Organism>  (689) 
None

>  <Target ChEMBL ID>  (689) 
CHEMBL4247

>  <Target Name>  (689) 
ALK tyrosine kinase receptor

>  <Target Organism>  (689) 
Homo sapiens

>  <Target Type>  (689) 
SINGLE PROTEIN

>  <Document ChEMBL ID>  (689) 
CHEMBL1961873

>  <Source Description>  (689) 
GSK Published Kinase Inhibitor Set

>  <Document Journal>  (689) 
nan

>  <Document Year>  (689) 
nan

>  <Active>  (689) 
0.0

>  <bits>  (689) 
<rdkit.DataStructs.cDataStructs.ExplicitBitVect object at 0x000002422F1E9150>

>  <Group>  (689) 
G2

$$$$

     RDKit          2D

 22 25  0  0  0  0  0  0  0  0999 V2000
   -6.9177    4.3013    0.0000 C   0  0  0  0  0  0  0  0  0  0  0  0
   -5.4912    4.7648    0.0000 C   0  0  0  0  0  0  0  0  0  0  0  0
   -4.3764    3.7611    0.0000 C   0  0  0  0  0  0  0  0  0  0  0  0
   -4.6883    2.2939    0.0000 C   0  0  0  0  0  0  0  0  0  0  0  0
   -3.5736    1.2902    0.0000 N   0  0  0  0  0  0  0  0  0  0  0  0
   -2.1470    1.7537    0.0000 C   0  0  0  0  0  0  0  0  0  0  0  0
   -1.8351    3.2209    0.0000 N   0  0  0  0  0  0  0  0  0  0  0  0
   -0.4086    3.6844    0.0000 C   0  0  0  0  0  0  0  0  0  0  0  0
   -0.0967    5.1517    0.0000 N   0  0  0  0  0  0  0  0  0  0  0  0
    1.3299    5.6152    0.0000 C   0  0  0  0  0  0  0  0  0  0  0  0
    1.7934    7.0418    0.0000 C   0  0  0  0  0  0  0  0  0  0  0  0
    3.2934    7.0418    0.0000 N   0  0  0  0  0  0  0  0  0  0  0  0
    3.7570    5.6152    0.0000 N   0  0  0  0  0  0  0  0  0  0  0  0
    2.5434    4.7335    0.0000 C   0  0  0  0  0  0  0  0  0  0  0  0
    0.7062    2.6807    0.0000 N   0  0  0  0  0  0  0  0  0  0  0  0
    0.3943    1.2135    0.0000 C   0  0  0  0  0  0  0  0  0  0  0  0
    1.2760    0.0000    0.0000 N   0  0  0  0  0  0  0  0  0  0  0  0
    0.3943   -1.2135    0.0000 C   0  0  0  0  0  0  0  0  0  0  0  0
   -1.0323   -0.7500    0.0000 C   0  0  0  0  0  0  0  0  0  0  0  0
   -1.0323    0.7500    0.0000 C   0  0  0  0  0  0  0  0  0  0  0  0
   -6.1149    1.8303    0.0000 C   0  0  0  0  0  0  0  0  0  0  0  0
   -7.2296    2.8340    0.0000 C   0  0  0  0  0  0  0  0  0  0  0  0
  1  2  2  0
  2  3  1  0
  3  4  2  0
  4  5  1  0
  5  6  1  0
  6  7  2  0
  7  8  1  0
  8  9  1  0
  9 10  1  0
 10 11  1  0
 11 12  2  0
 12 13  1  0
 13 14  1  0
  8 15  2  0
 15 16  1  0
 16 17  1  0
 17 18  1  0
 18 19  2  0
 19 20  1  0
  4 21  1  0
 21 22  2  0
 22  1  1  0
 20  6  1  0
 14 10  2  0
 20 16  2  0
M  END
>  <Compound_ID>  (690) 
CHEMBL4448847

>  <Molecule Name>  (690) 
nan

>  <Molecular Weight>  (690) 
291.32

>  <AlogP>  (690) 
3.17

>  <Smiles>  (690) 
c1ccc(Nc2nc(Nc3cn[nH]c3)nc3[nH]ccc23)cc1

>  <Standard Type>  (690) 
Inhibition

>  <Standard Relation>  (690) 
'='

>  <Standard Units>  (690) 
%

>  <Standard Value>  (690) 
15.1

>  <Assay ChEMBL ID>  (690) 
CHEMBL4431275

>  <Assay Description>  (690) 
Inhibition of ALK (unknown origin) at 20 nM relative to control

>  <BAO Format ID>  (690) 
BAO_0000357

>  <BAO Label>  (690) 
single protein format

>  <Assay Organism>  (690) 
Homo sapiens

>  <Target ChEMBL ID>  (690) 
CHEMBL4247

>  <Target Name>  (690) 
ALK tyrosine kinase receptor

>  <Target Organism>  (690) 
Homo sapiens

>  <Target Type>  (690) 
SINGLE PROTEIN

>  <Document ChEMBL ID>  (690) 
CHEMBL4428138

>  <Source Description>  (690) 
Scientific Literature

>  <Document Journal>  (690) 
ACS Med Chem Lett

>  <Document Year>  (690) 
2016.0

>  <Active>  (690) 
0.0

>  <bits>  (690) 
<rdkit.DataStructs.cDataStructs.ExplicitBitVect object at 0x000002422F1E9700>

>  <Group>  (690) 
G2

$$$$

     RDKit          2D

 35 39  0  0  0  0  0  0  0  0999 V2000
   -8.2500   -9.0933    0.0000 C   0  0  0  0  0  0  0  0  0  0  0  0
   -6.7500   -9.0933    0.0000 O   0  0  0  0  0  0  0  0  0  0  0  0
   -6.0000   -7.7942    0.0000 C   0  0  0  0  0  0  0  0  0  0  0  0
   -6.7500   -6.4952    0.0000 C   0  0  0  0  0  0  0  0  0  0  0  0
   -6.0000   -5.1962    0.0000 C   0  0  0  0  0  0  0  0  0  0  0  0
   -4.5000   -5.1962    0.0000 C   0  0  0  0  0  0  0  0  0  0  0  0
   -3.7500   -3.8971    0.0000 S   0  0  0  0  0  0  0  0  0  0  0  0
   -2.4510   -4.6471    0.0000 O   0  0  0  0  0  0  0  0  0  0  0  0
   -5.0490   -3.1471    0.0000 O   0  0  0  0  0  0  0  0  0  0  0  0
   -3.0000   -2.5981    0.0000 N   0  0  0  0  0  0  0  0  0  0  0  0
   -1.5000   -2.5981    0.0000 C   0  0  0  0  0  0  0  0  0  0  0  0
   -0.7500   -3.8971    0.0000 C   0  0  0  0  0  0  0  0  0  0  0  0
    0.7500   -3.8971    0.0000 C   0  0  0  0  0  0  0  0  0  0  0  0
    1.5000   -5.1962    0.0000 S   0  0  0  0  0  0  0  0  0  0  0  0
    0.7500   -6.4952    0.0000 C   0  0  0  0  0  0  0  0  0  0  0  0
   -0.7500   -6.4952    0.0000 N   0  0  0  0  0  0  0  0  0  0  0  0
   -1.5000   -7.7942    0.0000 C   0  0  0  0  0  0  0  0  0  0  0  0
   -0.7500   -9.0933    0.0000 N   0  0  0  0  0  0  0  0  0  0  0  0
    0.7500   -9.0933    0.0000 C   0  0  0  0  0  0  0  0  0  0  0  0
    1.7537  -10.2080    0.0000 N   0  0  0  0  0  0  0  0  0  0  0  0
    3.1240   -9.5979    0.0000 C   0  0  0  0  0  0  0  0  0  0  0  0
    2.9672   -8.1061    0.0000 N   0  0  0  0  0  0  0  0  0  0  0  0
    1.5000   -7.7942    0.0000 C   0  0  0  0  0  0  0  0  0  0  0  0
    1.5000   -2.5981    0.0000 C   0  0  0  0  0  0  0  0  0  0  0  0
    3.0000   -2.5981    0.0000 O   0  0  0  0  0  0  0  0  0  0  0  0
    0.7500   -1.2990    0.0000 C   0  0  0  0  0  0  0  0  0  0  0  0
    1.5000    0.0000    0.0000 C   0  0  0  0  0  0  0  0  0  0  0  0
    0.7500    1.2990    0.0000 C   0  0  0  0  0  0  0  0  0  0  0  0
   -0.7500    1.2990    0.0000 C   0  0  0  0  0  0  0  0  0  0  0  0
   -1.5000    0.0000    0.0000 C   0  0  0  0  0  0  0  0  0  0  0  0
   -0.7500   -1.2990    0.0000 C   0  0  0  0  0  0  0  0  0  0  0  0
   -3.7500   -6.4952    0.0000 C   0  0  0  0  0  0  0  0  0  0  0  0
   -4.5000   -7.7942    0.0000 C   0  0  0  0  0  0  0  0  0  0  0  0
   -3.7500   -9.0933    0.0000 O   0  0  0  0  0  0  0  0  0  0  0  0
   -4.5000  -10.3923    0.0000 C   0  0  0  0  0  0  0  0  0  0  0  0
  1  2  1  0
  2  3  1  0
  3  4  2  0
  4  5  1  0
  5  6  2  0
  6  7  1  0
  7  8  2  0
  7  9  2  0
  7 10  1  0
 10 11  1  0
 11 12  2  0
 12 13  1  0
 13 14  1  0
 14 15  1  0
 15 16  2  0
 16 17  1  0
 17 18  2  0
 18 19  1  0
 19 20  1  0
 20 21  2  0
 21 22  1  0
 22 23  1  0
 13 24  2  0
 24 25  1  0
 24 26  1  0
 26 27  2  0
 27 28  1  0
 28 29  2  0
 29 30  1  0
 30 31  2  0
  6 32  1  0
 32 33  2  0
 33 34  1  0
 34 35  1  0
 33  3  1  0
 31 11  1  0
 23 15  1  0
 31 26  1  0
 23 19  2  0
M  END
>  <Compound_ID>  (691) 
CHEMBL3113284

>  <Molecule Name>  (691) 
nan

>  <Molecular Weight>  (691) 
509.57

>  <AlogP>  (691) 
4.18

>  <Smiles>  (691) 
COc1ccc(S(=O)(=O)Nc2cc(Sc3ncnc4nc[nH]c34)c(O)c3ccccc23)cc1OC

>  <Standard Type>  (691) 
Inhibition

>  <Standard Relation>  (691) 
'='

>  <Standard Units>  (691) 
%

>  <Standard Value>  (691) 
10.2

>  <Assay ChEMBL ID>  (691) 
CHEMBL3117718

>  <Assay Description>  (691) 
Inhibition of ALK (unknown origin) at 10 uM after 30 mins relative to control

>  <BAO Format ID>  (691) 
BAO_0000357

>  <BAO Label>  (691) 
single protein format

>  <Assay Organism>  (691) 
Homo sapiens

>  <Target ChEMBL ID>  (691) 
CHEMBL4247

>  <Target Name>  (691) 
ALK tyrosine kinase receptor

>  <Target Organism>  (691) 
Homo sapiens

>  <Target Type>  (691) 
SINGLE PROTEIN

>  <Document ChEMBL ID>  (691) 
CHEMBL3112530

>  <Source Description>  (691) 
Scientific Literature

>  <Document Journal>  (691) 
Bioorg Med Chem

>  <Document Year>  (691) 
2014.0

>  <Active>  (691) 
0.0

>  <bits>  (691) 
<rdkit.DataStructs.cDataStructs.ExplicitBitVect object at 0x000002422F1EB140>

>  <Group>  (691) 
G2

$$$$

     RDKit          2D

 31 34  0  0  0  0  0  0  0  0999 V2000
    3.7500   -1.2990    0.0000 C   0  0  0  0  0  0  0  0  0  0  0  0
    3.0000    0.0000    0.0000 O   0  0  0  0  0  0  0  0  0  0  0  0
    1.5000    0.0000    0.0000 C   0  0  0  0  0  0  0  0  0  0  0  0
    0.7500   -1.2990    0.0000 C   0  0  0  0  0  0  0  0  0  0  0  0
   -0.7500   -1.2990    0.0000 C   0  0  0  0  0  0  0  0  0  0  0  0
   -1.5000    0.0000    0.0000 C   0  0  0  0  0  0  0  0  0  0  0  0
   -3.0000    0.0000    0.0000 C   0  0  0  0  0  0  0  0  0  0  0  0
   -3.7500    1.2990    0.0000 N   0  0  0  0  0  0  0  0  0  0  0  0
   -5.2500    1.2990    0.0000 C   0  0  0  0  0  0  0  0  0  0  0  0
   -6.0000    0.0000    0.0000 O   0  0  0  0  0  0  0  0  0  0  0  0
   -6.0000    2.5981    0.0000 C   0  0  0  0  0  0  0  0  0  0  0  0
   -5.2500    3.8971    0.0000 C   0  0  0  0  0  0  0  0  0  0  0  0
   -6.0000    5.1962    0.0000 C   0  0  0  0  0  0  0  0  0  0  0  0
   -7.5000    5.1962    0.0000 C   0  0  0  0  0  0  0  0  0  0  0  0
   -8.2500    6.4952    0.0000 C   0  0  0  0  0  0  0  0  0  0  0  0
   -7.5000    7.7942    0.0000 C   0  0  0  0  0  0  0  0  0  0  0  0
   -8.2500    9.0933    0.0000 C   0  0  0  0  0  0  0  0  0  0  0  0
   -7.5000   10.3923    0.0000 C   0  0  0  0  0  0  0  0  0  0  0  0
   -8.1101   11.7626    0.0000 N   0  0  0  0  0  0  0  0  0  0  0  0
   -6.9954   12.7663    0.0000 N   0  0  0  0  0  0  0  0  0  0  0  0
   -5.6963   12.0163    0.0000 C   0  0  0  0  0  0  0  0  0  0  0  0
   -4.3260   12.6264    0.0000 C   0  0  0  0  0  0  0  0  0  0  0  0
   -6.0082   10.5491    0.0000 O   0  0  0  0  0  0  0  0  0  0  0  0
   -9.7500    9.0933    0.0000 C   0  0  0  0  0  0  0  0  0  0  0  0
  -10.5000    7.7942    0.0000 C   0  0  0  0  0  0  0  0  0  0  0  0
   -9.7500    6.4952    0.0000 C   0  0  0  0  0  0  0  0  0  0  0  0
  -10.5000    5.1962    0.0000 C   0  0  0  0  0  0  0  0  0  0  0  0
   -8.2500    3.8971    0.0000 C   0  0  0  0  0  0  0  0  0  0  0  0
   -7.5000    2.5981    0.0000 C   0  0  0  0  0  0  0  0  0  0  0  0
   -0.7500    1.2990    0.0000 C   0  0  0  0  0  0  0  0  0  0  0  0
    0.7500    1.2990    0.0000 C   0  0  0  0  0  0  0  0  0  0  0  0
  1  2  1  0
  2  3  1  0
  3  4  2  0
  4  5  1  0
  5  6  2  0
  6  7  1  0
  7  8  1  0
  8  9  1  0
  9 10  2  0
  9 11  1  0
 11 12  2  0
 12 13  1  0
 13 14  2  0
 14 15  1  0
 15 16  2  0
 16 17  1  0
 17 18  1  0
 18 19  2  0
 19 20  1  0
 20 21  2  0
 21 22  1  0
 21 23  1  0
 17 24  2  0
 24 25  1  0
 25 26  2  0
 26 27  1  0
 14 28  1  0
 28 29  2  0
  6 30  1  0
 30 31  2  0
 31  3  1  0
 29 11  1  0
 26 15  1  0
 23 18  1  0
M  END
>  <Compound_ID>  (692) 
CHEMBL269985

>  <Molecule Name>  (692) 
GW701032X

>  <Molecular Weight>  (692) 
413.48

>  <AlogP>  (692) 
4.96

>  <Smiles>  (692) 
COc1ccc(CNC(=O)c2ccc(-c3cc(-c4nnc(C)o4)ccc3C)cc2)cc1

>  <Standard Type>  (692) 
Inhibition

>  <Standard Relation>  (692) 
'='

>  <Standard Units>  (692) 
%

>  <Standard Value>  (692) 
-0.53

>  <Assay ChEMBL ID>  (692) 
CHEMBL1962241

>  <Assay Description>  (692) 
GSK_PKIS: ALK mean inhibition at 1 uM [Nanosyn]

>  <BAO Format ID>  (692) 
BAO_0000357

>  <BAO Label>  (692) 
single protein format

>  <Assay Organism>  (692) 
None

>  <Target ChEMBL ID>  (692) 
CHEMBL4247

>  <Target Name>  (692) 
ALK tyrosine kinase receptor

>  <Target Organism>  (692) 
Homo sapiens

>  <Target Type>  (692) 
SINGLE PROTEIN

>  <Document ChEMBL ID>  (692) 
CHEMBL1961873

>  <Source Description>  (692) 
GSK Published Kinase Inhibitor Set

>  <Document Journal>  (692) 
nan

>  <Document Year>  (692) 
nan

>  <Active>  (692) 
0.0

>  <bits>  (692) 
<rdkit.DataStructs.cDataStructs.ExplicitBitVect object at 0x000002422F1E9B60>

>  <Group>  (692) 
G2

$$$$

     RDKit          2D

 27 30  0  0  0  0  0  0  0  0999 V2000
    3.7500   -1.2990    0.0000 C   0  0  0  0  0  0  0  0  0  0  0  0
    3.0000    0.0000    0.0000 O   0  0  0  0  0  0  0  0  0  0  0  0
    1.5000    0.0000    0.0000 C   0  0  0  0  0  0  0  0  0  0  0  0
    0.7500   -1.2990    0.0000 C   0  0  0  0  0  0  0  0  0  0  0  0
   -0.7500   -1.2990    0.0000 C   0  0  0  0  0  0  0  0  0  0  0  0
   -1.5000    0.0000    0.0000 C   0  0  0  0  0  0  0  0  0  0  0  0
   -3.0000    0.0000    0.0000 N   0  0  0  0  0  0  0  0  0  0  0  0
   -3.7500    1.2990    0.0000 C   0  0  0  0  0  0  0  0  0  0  0  0
   -3.0000    2.5981    0.0000 N   0  0  0  0  0  0  0  0  0  0  0  0
   -1.5000    2.5981    0.0000 C   0  0  0  0  0  0  0  0  0  0  0  0
   -0.7500    3.8971    0.0000 N   0  0  0  0  0  0  0  0  0  0  0  0
   -1.5000    5.1962    0.0000 C   0  0  0  0  0  0  0  0  0  0  0  0
   -0.7500    6.4952    0.0000 C   0  0  0  0  0  0  0  0  0  0  0  0
   -1.5000    7.7942    0.0000 C   0  0  0  0  0  0  0  0  0  0  0  0
   -3.0000    7.7942    0.0000 C   0  0  0  0  0  0  0  0  0  0  0  0
   -3.7500    9.0933    0.0000 O   0  0  0  0  0  0  0  0  0  0  0  0
   -3.0000   10.3923    0.0000 C   0  0  0  0  0  0  0  0  0  0  0  0
   -3.7500   11.6913    0.0000 C   0  0  0  0  0  0  0  0  0  0  0  0
   -3.0000   12.9904    0.0000 C   0  0  0  0  0  0  0  0  0  0  0  0
   -3.7500   14.2894    0.0000 C   0  0  0  0  0  0  0  0  0  0  0  0
   -5.2500   14.2894    0.0000 C   0  0  0  0  0  0  0  0  0  0  0  0
   -6.0000   12.9904    0.0000 C   0  0  0  0  0  0  0  0  0  0  0  0
   -5.2500   11.6913    0.0000 C   0  0  0  0  0  0  0  0  0  0  0  0
   -3.7500    6.4952    0.0000 C   0  0  0  0  0  0  0  0  0  0  0  0
   -3.0000    5.1962    0.0000 C   0  0  0  0  0  0  0  0  0  0  0  0
   -0.7500    1.2990    0.0000 C   0  0  0  0  0  0  0  0  0  0  0  0
    0.7500    1.2990    0.0000 C   0  0  0  0  0  0  0  0  0  0  0  0
  1  2  1  0
  2  3  1  0
  3  4  2  0
  4  5  1  0
  5  6  2  0
  6  7  1  0
  7  8  2  0
  8  9  1  0
  9 10  2  0
 10 11  1  0
 11 12  1  0
 12 13  2  0
 13 14  1  0
 14 15  2  0
 15 16  1  0
 16 17  1  0
 17 18  1  0
 18 19  2  0
 19 20  1  0
 20 21  2  0
 21 22  1  0
 22 23  2  0
 15 24  1  0
 24 25  2  0
 10 26  1  0
 26 27  2  0
 27  3  1  0
 26  6  1  0
 25 12  1  0
 23 18  1  0
M  END
>  <Compound_ID>  (693) 
CHEMBL1909411

>  <Molecule Name>  (693) 
nan

>  <Molecular Weight>  (693) 
393.87

>  <AlogP>  (693) 
4.96

>  <Smiles>  (693) 
COc1ccc2ncnc(Nc3ccc(OCc4ccccc4)cc3)c2c1

>  <Standard Type>  (693) 
Inhibition

>  <Standard Relation>  (693) 
'='

>  <Standard Units>  (693) 
%

>  <Standard Value>  (693) 
0.87

>  <Assay ChEMBL ID>  (693) 
CHEMBL1962241

>  <Assay Description>  (693) 
GSK_PKIS: ALK mean inhibition at 1 uM [Nanosyn]

>  <BAO Format ID>  (693) 
BAO_0000357

>  <BAO Label>  (693) 
single protein format

>  <Assay Organism>  (693) 
None

>  <Target ChEMBL ID>  (693) 
CHEMBL4247

>  <Target Name>  (693) 
ALK tyrosine kinase receptor

>  <Target Organism>  (693) 
Homo sapiens

>  <Target Type>  (693) 
SINGLE PROTEIN

>  <Document ChEMBL ID>  (693) 
CHEMBL1961873

>  <Source Description>  (693) 
GSK Published Kinase Inhibitor Set

>  <Document Journal>  (693) 
nan

>  <Document Year>  (693) 
nan

>  <Active>  (693) 
0.0

>  <bits>  (693) 
<rdkit.DataStructs.cDataStructs.ExplicitBitVect object at 0x000002422F1E8970>

>  <Group>  (693) 
G2

$$$$

     RDKit          2D

 24 27  0  0  0  0  0  0  0  0999 V2000
    3.0000    0.0000    0.0000 O   0  0  0  0  0  0  0  0  0  0  0  0
    1.5000    0.0000    0.0000 C   0  0  0  0  0  0  0  0  0  0  0  0
    0.7500   -1.2990    0.0000 C   0  0  0  0  0  0  0  0  0  0  0  0
   -0.7500   -1.2990    0.0000 C   0  0  0  0  0  0  0  0  0  0  0  0
   -1.5000    0.0000    0.0000 C   0  0  0  0  0  0  0  0  0  0  0  0
   -0.7500    1.2990    0.0000 C   0  0  0  0  0  0  0  0  0  0  0  0
   -1.5000    2.5981    0.0000 C   0  0  0  0  0  0  0  0  0  0  0  0
   -2.9918    2.7549    0.0000 N   0  0  0  0  0  0  0  0  0  0  0  0
   -3.3037    4.2221    0.0000 C   0  0  0  0  0  0  0  0  0  0  0  0
   -4.6740    4.8322    0.0000 C   0  0  0  0  0  0  0  0  0  0  0  0
   -4.8308    6.3240    0.0000 C   0  0  0  0  0  0  0  0  0  0  0  0
   -6.2011    6.9341    0.0000 C   0  0  0  0  0  0  0  0  0  0  0  0
   -7.4146    6.0524    0.0000 C   0  0  0  0  0  0  0  0  0  0  0  0
   -7.2578    4.5606    0.0000 C   0  0  0  0  0  0  0  0  0  0  0  0
   -5.8875    3.9505    0.0000 C   0  0  0  0  0  0  0  0  0  0  0  0
   -2.0046    4.9721    0.0000 N   0  0  0  0  0  0  0  0  0  0  0  0
   -0.8899    3.9684    0.0000 C   0  0  0  0  0  0  0  0  0  0  0  0
    0.5773    4.2803    0.0000 C   0  0  0  0  0  0  0  0  0  0  0  0
    1.5810    3.1655    0.0000 C   0  0  0  0  0  0  0  0  0  0  0  0
    3.0482    3.4774    0.0000 C   0  0  0  0  0  0  0  0  0  0  0  0
    3.5118    4.9040    0.0000 N   0  0  0  0  0  0  0  0  0  0  0  0
    2.5081    6.0187    0.0000 C   0  0  0  0  0  0  0  0  0  0  0  0
    1.0409    5.7068    0.0000 C   0  0  0  0  0  0  0  0  0  0  0  0
    0.7500    1.2990    0.0000 C   0  0  0  0  0  0  0  0  0  0  0  0
  1  2  1  0
  2  3  2  0
  3  4  1  0
  4  5  2  0
  5  6  1  0
  6  7  1  0
  7  8  1  0
  8  9  2  0
  9 10  1  0
 10 11  2  0
 11 12  1  0
 12 13  2  0
 13 14  1  0
 14 15  2  0
  9 16  1  0
 16 17  1  0
 17 18  1  0
 18 19  2  0
 19 20  1  0
 20 21  2  0
 21 22  1  0
 22 23  2  0
  6 24  2  0
 24  2  1  0
 17  7  2  0
 23 18  1  0
 15 10  1  0
M  END
>  <Compound_ID>  (694) 
CHEMBL1909413

>  <Molecule Name>  (694) 
nan

>  <Molecular Weight>  (694) 
349.82

>  <AlogP>  (694) 
4.51

>  <Smiles>  (694) 
Oc1cccc(-c2nc(-c3ccccc3)[nH]c2-c2ccncc2)c1

>  <Standard Type>  (694) 
Inhibition

>  <Standard Relation>  (694) 
'='

>  <Standard Units>  (694) 
%

>  <Standard Value>  (694) 
3.1

>  <Assay ChEMBL ID>  (694) 
CHEMBL1962240

>  <Assay Description>  (694) 
GSK_PKIS: ALK mean inhibition at 0.1 uM [Nanosyn]

>  <BAO Format ID>  (694) 
BAO_0000357

>  <BAO Label>  (694) 
single protein format

>  <Assay Organism>  (694) 
None

>  <Target ChEMBL ID>  (694) 
CHEMBL4247

>  <Target Name>  (694) 
ALK tyrosine kinase receptor

>  <Target Organism>  (694) 
Homo sapiens

>  <Target Type>  (694) 
SINGLE PROTEIN

>  <Document ChEMBL ID>  (694) 
CHEMBL1961873

>  <Source Description>  (694) 
GSK Published Kinase Inhibitor Set

>  <Document Journal>  (694) 
nan

>  <Document Year>  (694) 
nan

>  <Active>  (694) 
0.0

>  <bits>  (694) 
<rdkit.DataStructs.cDataStructs.ExplicitBitVect object at 0x000002422F1E8F90>

>  <Group>  (694) 
G2

$$$$

     RDKit          2D

 29 32  0  0  0  0  0  0  0  0999 V2000
    3.7500   -1.2990    0.0000 C   0  0  0  0  0  0  0  0  0  0  0  0
    3.0000    0.0000    0.0000 O   0  0  0  0  0  0  0  0  0  0  0  0
    1.5000    0.0000    0.0000 C   0  0  0  0  0  0  0  0  0  0  0  0
    0.7500   -1.2990    0.0000 C   0  0  0  0  0  0  0  0  0  0  0  0
   -0.7500   -1.2990    0.0000 C   0  0  0  0  0  0  0  0  0  0  0  0
   -1.5000    0.0000    0.0000 C   0  0  0  0  0  0  0  0  0  0  0  0
   -2.9672    0.3119    0.0000 N   0  0  0  0  0  0  0  0  0  0  0  0
   -3.1240    1.8037    0.0000 C   0  0  0  0  0  0  0  0  0  0  0  0
   -1.7537    2.4138    0.0000 N   0  0  0  0  0  0  0  0  0  0  0  0
   -1.4418    3.8810    0.0000 C   0  0  0  0  0  0  0  0  0  0  0  0
   -2.4455    4.9957    0.0000 C   0  0  0  0  0  0  0  0  0  0  0  0
   -1.6955    6.2947    0.0000 C   0  0  0  0  0  0  0  0  0  0  0  0
   -2.3056    7.6651    0.0000 O   0  0  0  0  0  0  0  0  0  0  0  0
   -3.7974    7.8218    0.0000 C   0  0  0  0  0  0  0  0  0  0  0  0
   -4.4075    9.1922    0.0000 C   0  0  0  0  0  0  0  0  0  0  0  0
   -4.6791    6.6083    0.0000 C   0  0  0  0  0  0  0  0  0  0  0  0
   -4.0690    5.2380    0.0000 C   0  0  0  0  0  0  0  0  0  0  0  0
   -4.9507    4.0245    0.0000 C   0  0  0  0  0  0  0  0  0  0  0  0
   -6.4424    4.1813    0.0000 C   0  0  0  0  0  0  0  0  0  0  0  0
   -7.0526    5.5516    0.0000 C   0  0  0  0  0  0  0  0  0  0  0  0
   -6.1709    6.7651    0.0000 C   0  0  0  0  0  0  0  0  0  0  0  0
   -6.7810    8.1354    0.0000 Cl  0  0  0  0  0  0  0  0  0  0  0  0
   -0.2283    5.9829    0.0000 C   0  0  0  0  0  0  0  0  0  0  0  0
    0.8864    6.9866    0.0000 C   0  0  0  0  0  0  0  0  0  0  0  0
    2.3130    6.5230    0.0000 N   0  0  0  0  0  0  0  0  0  0  0  0
    0.5745    8.4538    0.0000 O   0  0  0  0  0  0  0  0  0  0  0  0
   -0.0715    4.4911    0.0000 S   0  0  0  0  0  0  0  0  0  0  0  0
   -0.7500    1.2990    0.0000 C   0  0  0  0  0  0  0  0  0  0  0  0
    0.7500    1.2990    0.0000 C   0  0  0  0  0  0  0  0  0  0  0  0
  1  2  1  0
  2  3  1  0
  3  4  2  0
  4  5  1  0
  5  6  2  0
  6  7  1  0
  7  8  2  0
  8  9  1  0
  9 10  1  0
 10 11  2  0
 11 12  1  0
 12 13  1  0
 13 14  1  0
 14 15  1  1
 14 16  1  0
 16 17  2  0
 17 18  1  0
 18 19  2  0
 19 20  1  0
 20 21  2  0
 21 22  1  0
 12 23  2  0
 23 24  1  0
 24 25  1  0
 24 26  2  0
 23 27  1  0
  9 28  1  0
 28 29  2  0
 29  3  1  0
 28  6  1  0
 27 10  1  0
 21 16  1  0
M  END
>  <Compound_ID>  (695) 
CHEMBL493326

>  <Molecule Name>  (695) 
GSK-317314A

>  <Molecular Weight>  (695) 
427.91

>  <AlogP>  (695) 
4.99

>  <Smiles>  (695) 
COc1ccc2ncn(-c3cc(O[C@H](C)c4ccccc4Cl)c(C(N)=O)s3)c2c1

>  <Standard Type>  (695) 
Inhibition

>  <Standard Relation>  (695) 
'='

>  <Standard Units>  (695) 
%

>  <Standard Value>  (695) 
0.59

>  <Assay ChEMBL ID>  (695) 
CHEMBL1962241

>  <Assay Description>  (695) 
GSK_PKIS: ALK mean inhibition at 1 uM [Nanosyn]

>  <BAO Format ID>  (695) 
BAO_0000357

>  <BAO Label>  (695) 
single protein format

>  <Assay Organism>  (695) 
None

>  <Target ChEMBL ID>  (695) 
CHEMBL4247

>  <Target Name>  (695) 
ALK tyrosine kinase receptor

>  <Target Organism>  (695) 
Homo sapiens

>  <Target Type>  (695) 
SINGLE PROTEIN

>  <Document ChEMBL ID>  (695) 
CHEMBL1961873

>  <Source Description>  (695) 
GSK Published Kinase Inhibitor Set

>  <Document Journal>  (695) 
nan

>  <Document Year>  (695) 
nan

>  <Active>  (695) 
0.0

>  <bits>  (695) 
<rdkit.DataStructs.cDataStructs.ExplicitBitVect object at 0x000002422F1E9000>

>  <Group>  (695) 
G2

$$$$

     RDKit          2D

 24 26  0  0  0  0  0  0  0  0999 V2000
   -3.7548   -2.1855    0.0000 C   0  0  0  0  0  0  0  0  0  0  0  0
   -2.6401   -3.1891    0.0000 C   0  0  0  0  0  0  0  0  0  0  0  0
   -1.2135   -2.7256    0.0000 N   0  0  0  0  0  0  0  0  0  0  0  0
   -0.0000   -3.6073    0.0000 C   0  0  0  0  0  0  0  0  0  0  0  0
   -0.0000   -5.1073    0.0000 C   0  0  0  0  0  0  0  0  0  0  0  0
    1.2135   -5.9890    0.0000 N   0  0  0  0  0  0  0  0  0  0  0  0
    0.7500   -7.4156    0.0000 O   0  0  0  0  0  0  0  0  0  0  0  0
   -0.7500   -7.4156    0.0000 N   0  0  0  0  0  0  0  0  0  0  0  0
   -1.2135   -5.9890    0.0000 C   0  0  0  0  0  0  0  0  0  0  0  0
   -2.6401   -5.5255    0.0000 N   0  0  0  0  0  0  0  0  0  0  0  0
    1.2135   -2.7256    0.0000 N   0  0  0  0  0  0  0  0  0  0  0  0
    0.7500   -1.2990    0.0000 C   0  0  0  0  0  0  0  0  0  0  0  0
    1.5000    0.0000    0.0000 C   0  0  0  0  0  0  0  0  0  0  0  0
    0.7500    1.2990    0.0000 N   0  0  0  0  0  0  0  0  0  0  0  0
   -0.7500    1.2990    0.0000 C   0  0  0  0  0  0  0  0  0  0  0  0
   -1.5000    0.0000    0.0000 C   0  0  0  0  0  0  0  0  0  0  0  0
   -3.0000    0.0000    0.0000 C   0  0  0  0  0  0  0  0  0  0  0  0
   -3.7500   -1.2990    0.0000 O   0  0  0  0  0  0  0  0  0  0  0  0
   -3.7500    1.2990    0.0000 N   0  0  0  0  0  0  0  0  0  0  0  0
   -5.2500    1.2990    0.0000 C   0  0  0  0  0  0  0  0  0  0  0  0
   -6.0000    2.5981    0.0000 C   0  0  0  0  0  0  0  0  0  0  0  0
   -7.5000    2.5981    0.0000 N   0  0  0  0  0  0  0  0  0  0  0  0
   -8.2500    3.8971    0.0000 C   0  0  0  0  0  0  0  0  0  0  0  0
   -0.7500   -1.2990    0.0000 C   0  0  0  0  0  0  0  0  0  0  0  0
  1  2  1  0
  2  3  1  0
  3  4  1  0
  4  5  1  0
  5  6  2  0
  6  7  1  0
  7  8  1  0
  8  9  2  0
  9 10  1  0
  4 11  2  0
 11 12  1  0
 12 13  2  0
 13 14  1  0
 14 15  2  0
 15 16  1  0
 16 17  1  0
 17 18  2  0
 17 19  1  0
 19 20  1  0
 20 21  1  0
 21 22  1  0
 22 23  1  0
 16 24  2  0
 24  3  1  0
  9  5  1  0
 24 12  1  0
M  END
>  <Compound_ID>  (696) 
CHEMBL506153

>  <Molecule Name>  (696) 
GW876790X

>  <Molecular Weight>  (696) 
330.35

>  <AlogP>  (696) 
0.03

>  <Smiles>  (696) 
CCn1c(-c2nonc2N)nc2cncc(C(=O)NCCNC)c21

>  <Standard Type>  (696) 
Inhibition

>  <Standard Relation>  (696) 
'='

>  <Standard Units>  (696) 
%

>  <Standard Value>  (696) 
4.23

>  <Assay ChEMBL ID>  (696) 
CHEMBL1962241

>  <Assay Description>  (696) 
GSK_PKIS: ALK mean inhibition at 1 uM [Nanosyn]

>  <BAO Format ID>  (696) 
BAO_0000357

>  <BAO Label>  (696) 
single protein format

>  <Assay Organism>  (696) 
None

>  <Target ChEMBL ID>  (696) 
CHEMBL4247

>  <Target Name>  (696) 
ALK tyrosine kinase receptor

>  <Target Organism>  (696) 
Homo sapiens

>  <Target Type>  (696) 
SINGLE PROTEIN

>  <Document ChEMBL ID>  (696) 
CHEMBL1961873

>  <Source Description>  (696) 
GSK Published Kinase Inhibitor Set

>  <Document Journal>  (696) 
nan

>  <Document Year>  (696) 
nan

>  <Active>  (696) 
0.0

>  <bits>  (696) 
<rdkit.DataStructs.cDataStructs.ExplicitBitVect object at 0x000002422F1EA340>

>  <Group>  (696) 
G2

$$$$

     RDKit          2D

 19 21  0  0  0  0  0  0  0  0999 V2000
    3.7500   -1.2990    0.0000 C   0  0  0  0  0  0  0  0  0  0  0  0
    3.0000    0.0000    0.0000 C   0  0  0  0  0  0  0  0  0  0  0  0
    1.5000    0.0000    0.0000 C   0  0  0  0  0  0  0  0  0  0  0  0
    0.7500   -1.2990    0.0000 N   0  0  0  0  0  0  0  0  0  0  0  0
   -0.7500   -1.2990    0.0000 C   0  0  0  0  0  0  0  0  0  0  0  0
   -1.5000    0.0000    0.0000 C   0  0  0  0  0  0  0  0  0  0  0  0
   -0.7500    1.2990    0.0000 C   0  0  0  0  0  0  0  0  0  0  0  0
    0.7500    1.2990    0.0000 C   0  0  0  0  0  0  0  0  0  0  0  0
    1.2135    2.7256    0.0000 N   0  0  0  0  0  0  0  0  0  0  0  0
    0.0000    3.6073    0.0000 C   0  0  0  0  0  0  0  0  0  0  0  0
    0.0000    5.1073    0.0000 C   0  0  0  0  0  0  0  0  0  0  0  0
   -1.2135    5.9890    0.0000 N   0  0  0  0  0  0  0  0  0  0  0  0
   -0.7500    7.4156    0.0000 O   0  0  0  0  0  0  0  0  0  0  0  0
    0.7500    7.4156    0.0000 N   0  0  0  0  0  0  0  0  0  0  0  0
    1.2135    5.9890    0.0000 C   0  0  0  0  0  0  0  0  0  0  0  0
    2.6401    5.5255    0.0000 N   0  0  0  0  0  0  0  0  0  0  0  0
   -1.2135    2.7256    0.0000 N   0  0  0  0  0  0  0  0  0  0  0  0
   -2.6401    3.1891    0.0000 C   0  0  0  0  0  0  0  0  0  0  0  0
   -3.7548    2.1855    0.0000 C   0  0  0  0  0  0  0  0  0  0  0  0
  1  2  1  0
  2  3  1  0
  3  4  2  0
  4  5  1  0
  5  6  2  0
  6  7  1  0
  7  8  2  0
  8  9  1  0
  9 10  2  0
 10 11  1  0
 11 12  2  0
 12 13  1  0
 13 14  1  0
 14 15  2  0
 15 16  1  0
 10 17  1  0
 17 18  1  0
 18 19  1  0
  8  3  1  0
 15 11  1  0
 17  7  1  0
M  END
>  <Compound_ID>  (697) 
CHEMBL365072

>  <Molecule Name>  (697) 
nan

>  <Molecular Weight>  (697) 
258.29

>  <AlogP>  (697) 
1.65

>  <Smiles>  (697) 
CCc1nccc2c1nc(-c1nonc1N)n2CC

>  <Standard Type>  (697) 
Inhibition

>  <Standard Relation>  (697) 
'='

>  <Standard Units>  (697) 
%

>  <Standard Value>  (697) 
0.99

>  <Assay ChEMBL ID>  (697) 
CHEMBL1962240

>  <Assay Description>  (697) 
GSK_PKIS: ALK mean inhibition at 0.1 uM [Nanosyn]

>  <BAO Format ID>  (697) 
BAO_0000357

>  <BAO Label>  (697) 
single protein format

>  <Assay Organism>  (697) 
None

>  <Target ChEMBL ID>  (697) 
CHEMBL4247

>  <Target Name>  (697) 
ALK tyrosine kinase receptor

>  <Target Organism>  (697) 
Homo sapiens

>  <Target Type>  (697) 
SINGLE PROTEIN

>  <Document ChEMBL ID>  (697) 
CHEMBL1961873

>  <Source Description>  (697) 
GSK Published Kinase Inhibitor Set

>  <Document Journal>  (697) 
nan

>  <Document Year>  (697) 
nan

>  <Active>  (697) 
0.0

>  <bits>  (697) 
<rdkit.DataStructs.cDataStructs.ExplicitBitVect object at 0x000002422F1E9620>

>  <Group>  (697) 
G2

$$$$

     RDKit          2D

 38 42  0  0  0  0  0  0  0  0999 V2000
   -8.2500   -1.2990    0.0000 C   0  0  0  0  0  0  0  0  0  0  0  0
   -7.5000   -2.5981    0.0000 O   0  0  0  0  0  0  0  0  0  0  0  0
   -6.0000   -2.5981    0.0000 C   0  0  0  0  0  0  0  0  0  0  0  0
   -5.2500   -1.2990    0.0000 C   0  0  0  0  0  0  0  0  0  0  0  0
   -3.7500   -1.2990    0.0000 C   0  0  0  0  0  0  0  0  0  0  0  0
   -3.0000   -2.5981    0.0000 C   0  0  0  0  0  0  0  0  0  0  0  0
   -1.5000   -2.5981    0.0000 N   0  0  0  0  0  0  0  0  0  0  0  0
   -0.7500   -3.8971    0.0000 C   0  0  0  0  0  0  0  0  0  0  0  0
   -1.5000   -5.1962    0.0000 O   0  0  0  0  0  0  0  0  0  0  0  0
    0.7500   -3.8971    0.0000 C   0  0  0  0  0  0  0  0  0  0  0  0
    1.5000   -2.5981    0.0000 O   0  0  0  0  0  0  0  0  0  0  0  0
    0.7500   -1.2990    0.0000 C   0  0  0  0  0  0  0  0  0  0  0  0
    1.5000    0.0000    0.0000 C   0  0  0  0  0  0  0  0  0  0  0  0
    0.7500    1.2990    0.0000 C   0  0  0  0  0  0  0  0  0  0  0  0
   -0.7500    1.2990    0.0000 C   0  0  0  0  0  0  0  0  0  0  0  0
   -1.5000    2.5981    0.0000 C   0  0  0  0  0  0  0  0  0  0  0  0
   -0.7500    3.8971    0.0000 C   0  0  0  0  0  0  0  0  0  0  0  0
   -1.5000    5.1962    0.0000 N   0  0  0  0  0  0  0  0  0  0  0  0
   -3.0000    5.1962    0.0000 C   0  0  0  0  0  0  0  0  0  0  0  0
   -3.7500    6.4952    0.0000 O   0  0  0  0  0  0  0  0  0  0  0  0
   -3.0000    7.7942    0.0000 C   0  0  0  0  0  0  0  0  0  0  0  0
   -3.7500    3.8971    0.0000 C   0  0  0  0  0  0  0  0  0  0  0  0
   -5.2500    3.8971    0.0000 N   0  0  0  0  0  0  0  0  0  0  0  0
   -6.0000    5.1962    0.0000 S   0  0  0  0  0  0  0  0  0  0  0  0
   -4.7010    5.9462    0.0000 O   0  0  0  0  0  0  0  0  0  0  0  0
   -7.2990    4.4462    0.0000 O   0  0  0  0  0  0  0  0  0  0  0  0
   -6.7500    6.4952    0.0000 C   0  0  0  0  0  0  0  0  0  0  0  0
   -8.2500    6.4952    0.0000 C   0  0  0  0  0  0  0  0  0  0  0  0
   -9.0000    7.7942    0.0000 C   0  0  0  0  0  0  0  0  0  0  0  0
   -8.2500    9.0933    0.0000 C   0  0  0  0  0  0  0  0  0  0  0  0
   -9.0000   10.3923    0.0000 F   0  0  0  0  0  0  0  0  0  0  0  0
   -6.7500    9.0933    0.0000 C   0  0  0  0  0  0  0  0  0  0  0  0
   -6.0000    7.7942    0.0000 C   0  0  0  0  0  0  0  0  0  0  0  0
   -3.0000    2.5981    0.0000 C   0  0  0  0  0  0  0  0  0  0  0  0
   -1.5000    0.0000    0.0000 C   0  0  0  0  0  0  0  0  0  0  0  0
   -0.7500   -1.2990    0.0000 C   0  0  0  0  0  0  0  0  0  0  0  0
   -3.7500   -3.8971    0.0000 C   0  0  0  0  0  0  0  0  0  0  0  0
   -5.2500   -3.8971    0.0000 C   0  0  0  0  0  0  0  0  0  0  0  0
  1  2  1  0
  2  3  1  0
  3  4  2  0
  4  5  1  0
  5  6  2  0
  6  7  1  0
  7  8  1  0
  8  9  2  0
  8 10  1  0
 10 11  1  0
 11 12  1  0
 12 13  2  0
 13 14  1  0
 14 15  2  0
 15 16  1  0
 16 17  2  0
 17 18  1  0
 18 19  2  0
 19 20  1  0
 20 21  1  0
 19 22  1  0
 22 23  1  0
 23 24  1  0
 24 25  2  0
 24 26  2  0
 24 27  1  0
 27 28  2  0
 28 29  1  0
 29 30  2  0
 30 31  1  0
 30 32  1  0
 32 33  2  0
 22 34  2  0
 15 35  1  0
 35 36  2  0
  6 37  1  0
 37 38  2  0
 38  3  1  0
 36  7  1  0
 36 12  1  0
 34 16  1  0
 33 27  1  0
M  END
>  <Compound_ID>  (698) 
CHEMBL4528675

>  <Molecule Name>  (698) 
nan

>  <Molecular Weight>  (698) 
535.55

>  <AlogP>  (698) 
4.76

>  <Smiles>  (698) 
COc1ccc(N2C(=O)COc3ccc(-c4cnc(OC)c(NS(=O)(=O)c5ccc(F)cc5)c4)cc32)cc1

>  <Standard Type>  (698) 
Inhibition

>  <Standard Relation>  (698) 
'='

>  <Standard Units>  (698) 
%

>  <Standard Value>  (698) 
2.94

>  <Assay ChEMBL ID>  (698) 
CHEMBL4366281

>  <Assay Description>  (698) 
Inhibition of human ALK at 100 nM using poly[Glu:Tyr] (4:1) as substrate by [gamma-33P]-ATP assay

>  <BAO Format ID>  (698) 
BAO_0000357

>  <BAO Label>  (698) 
single protein format

>  <Assay Organism>  (698) 
Homo sapiens

>  <Target ChEMBL ID>  (698) 
CHEMBL4247

>  <Target Name>  (698) 
ALK tyrosine kinase receptor

>  <Target Organism>  (698) 
Homo sapiens

>  <Target Type>  (698) 
SINGLE PROTEIN

>  <Document ChEMBL ID>  (698) 
CHEMBL4364276

>  <Source Description>  (698) 
Scientific Literature

>  <Document Journal>  (698) 
Eur J Med Chem

>  <Document Year>  (698) 
2019.0

>  <Active>  (698) 
0.0

>  <bits>  (698) 
<rdkit.DataStructs.cDataStructs.ExplicitBitVect object at 0x000002422F1E9850>

>  <Group>  (698) 
G2

$$$$

     RDKit          2D

 24 27  0  0  0  0  0  0  0  0999 V2000
   -9.0165    4.3002    0.0000 N   0  0  0  0  0  0  0  0  0  0  0  0
   -7.9018    3.2966    0.0000 C   0  0  0  0  0  0  0  0  0  0  0  0
   -6.7871    2.2929    0.0000 C   0  0  0  0  0  0  0  0  0  0  0  0
   -5.3605    2.7564    0.0000 C   0  0  0  0  0  0  0  0  0  0  0  0
   -4.2458    1.7527    0.0000 C   0  0  0  0  0  0  0  0  0  0  0  0
   -4.5577    0.2855    0.0000 C   0  0  0  0  0  0  0  0  0  0  0  0
   -5.9843   -0.1781    0.0000 C   0  0  0  0  0  0  0  0  0  0  0  0
   -6.2961   -1.6453    0.0000 N   0  0  0  0  0  0  0  0  0  0  0  0
   -5.1814   -2.6490    0.0000 C   0  0  0  0  0  0  0  0  0  0  0  0
   -5.4933   -4.1162    0.0000 N   0  0  0  0  0  0  0  0  0  0  0  0
   -4.3786   -5.1199    0.0000 C   0  0  0  0  0  0  0  0  0  0  0  0
   -2.9520   -4.6564    0.0000 C   0  0  0  0  0  0  0  0  0  0  0  0
   -2.6401   -3.1891    0.0000 C   0  0  0  0  0  0  0  0  0  0  0  0
   -1.2135   -2.7256    0.0000 C   0  0  0  0  0  0  0  0  0  0  0  0
   -0.0000   -3.6073    0.0000 C   0  0  0  0  0  0  0  0  0  0  0  0
    1.2135   -2.7256    0.0000 N   0  0  0  0  0  0  0  0  0  0  0  0
    0.7500   -1.2990    0.0000 N   0  0  0  0  0  0  0  0  0  0  0  0
    1.5000    0.0000    0.0000 N   0  0  0  0  0  0  0  0  0  0  0  0
    0.7500    1.2990    0.0000 C   0  0  0  0  0  0  0  0  0  0  0  0
   -0.7500    1.2990    0.0000 C   0  0  0  0  0  0  0  0  0  0  0  0
   -1.5000    0.0000    0.0000 C   0  0  0  0  0  0  0  0  0  0  0  0
   -0.7500   -1.2990    0.0000 C   0  0  0  0  0  0  0  0  0  0  0  0
   -3.7548   -2.1855    0.0000 N   0  0  0  0  0  0  0  0  0  0  0  0
   -7.0990    0.8256    0.0000 C   0  0  0  0  0  0  0  0  0  0  0  0
  1  2  3  0
  2  3  1  0
  3  4  2  0
  4  5  1  0
  5  6  2  0
  6  7  1  0
  7  8  1  0
  8  9  1  0
  9 10  2  0
 10 11  1  0
 11 12  2  0
 12 13  1  0
 13 14  1  0
 14 15  1  0
 15 16  2  0
 16 17  1  0
 17 18  1  0
 18 19  2  0
 19 20  1  0
 20 21  2  0
 21 22  1  0
 13 23  2  0
  7 24  2  0
 24  3  1  0
 23  9  1  0
 22 14  2  0
 22 17  1  0
M  END
>  <Compound_ID>  (699) 
CHEMBL495696

>  <Molecule Name>  (699) 
GW778894X

>  <Molecular Weight>  (699) 
313.32

>  <AlogP>  (699) 
2.8

>  <Smiles>  (699) 
N#Cc1cccc(Nc2nccc(-c3cnn4ncccc34)n2)c1

>  <Standard Type>  (699) 
Inhibition

>  <Standard Relation>  (699) 
'='

>  <Standard Units>  (699) 
%

>  <Standard Value>  (699) 
18.74

>  <Assay ChEMBL ID>  (699) 
CHEMBL1962241

>  <Assay Description>  (699) 
GSK_PKIS: ALK mean inhibition at 1 uM [Nanosyn]

>  <BAO Format ID>  (699) 
BAO_0000357

>  <BAO Label>  (699) 
single protein format

>  <Assay Organism>  (699) 
None

>  <Target ChEMBL ID>  (699) 
CHEMBL4247

>  <Target Name>  (699) 
ALK tyrosine kinase receptor

>  <Target Organism>  (699) 
Homo sapiens

>  <Target Type>  (699) 
SINGLE PROTEIN

>  <Document ChEMBL ID>  (699) 
CHEMBL1961873

>  <Source Description>  (699) 
GSK Published Kinase Inhibitor Set

>  <Document Journal>  (699) 
nan

>  <Document Year>  (699) 
nan

>  <Active>  (699) 
0.0

>  <bits>  (699) 
<rdkit.DataStructs.cDataStructs.ExplicitBitVect object at 0x000002422F1EAAB0>

>  <Group>  (699) 
G2

$$$$

     RDKit          2D

 26 28  0  0  0  0  0  0  0  0999 V2000
    3.0000    0.0000    0.0000 C   0  0  0  0  0  0  0  0  0  0  0  0
    1.5000    0.0000    0.0000 C   0  0  0  0  0  0  0  0  0  0  0  0
    0.7500   -1.2990    0.0000 C   0  0  0  0  0  0  0  0  0  0  0  0
   -0.7500   -1.2990    0.0000 C   0  0  0  0  0  0  0  0  0  0  0  0
   -1.5000    0.0000    0.0000 C   0  0  0  0  0  0  0  0  0  0  0  0
   -3.0000    0.0000    0.0000 C   0  0  0  0  0  0  0  0  0  0  0  0
   -3.7500   -1.2990    0.0000 O   0  0  0  0  0  0  0  0  0  0  0  0
   -3.7500    1.2990    0.0000 N   0  0  0  0  0  0  0  0  0  0  0  0
   -5.2500    1.2990    0.0000 C   0  0  0  0  0  0  0  0  0  0  0  0
   -6.0000    2.5981    0.0000 C   0  0  0  0  0  0  0  0  0  0  0  0
   -6.0000    0.0000    0.0000 C   0  0  0  0  0  0  0  0  0  0  0  0
   -0.7500    1.2990    0.0000 C   0  0  0  0  0  0  0  0  0  0  0  0
    0.7500    1.2990    0.0000 C   0  0  0  0  0  0  0  0  0  0  0  0
    1.5000    2.5981    0.0000 C   0  0  0  0  0  0  0  0  0  0  0  0
    3.0000    2.5981    0.0000 C   0  0  0  0  0  0  0  0  0  0  0  0
    3.7500    3.8971    0.0000 C   0  0  0  0  0  0  0  0  0  0  0  0
    3.0000    5.1962    0.0000 C   0  0  0  0  0  0  0  0  0  0  0  0
    3.7500    6.4952    0.0000 C   0  0  0  0  0  0  0  0  0  0  0  0
    3.0000    7.7942    0.0000 O   0  0  0  0  0  0  0  0  0  0  0  0
    5.2500    6.4952    0.0000 N   0  0  0  0  0  0  0  0  0  0  0  0
    6.0000    7.7942    0.0000 C   0  0  0  0  0  0  0  0  0  0  0  0
    7.5000    7.7942    0.0000 C   0  0  0  0  0  0  0  0  0  0  0  0
    8.7990    8.5442    0.0000 C   0  0  0  0  0  0  0  0  0  0  0  0
    8.7990    7.0442    0.0000 C   0  0  0  0  0  0  0  0  0  0  0  0
    1.5000    5.1962    0.0000 C   0  0  0  0  0  0  0  0  0  0  0  0
    0.7500    3.8971    0.0000 C   0  0  0  0  0  0  0  0  0  0  0  0
  1  2  1  0
  2  3  2  0
  3  4  1  0
  4  5  2  0
  5  6  1  0
  6  7  2  0
  6  8  1  0
  8  9  1  0
  9 10  1  0
  9 11  1  0
  5 12  1  0
 12 13  2  0
 13 14  1  0
 14 15  2  0
 15 16  1  0
 16 17  2  0
 17 18  1  0
 18 19  2  0
 18 20  1  0
 20 21  1  0
 21 22  1  0
 22 23  1  0
 23 24  1  0
 17 25  1  0
 25 26  2  0
 13  2  1  0
 26 14  1  0
 24 22  1  0
M  END
>  <Compound_ID>  (700) 
CHEMBL477979

>  <Molecule Name>  (700) 
GW785974X

>  <Molecular Weight>  (700) 
350.46

>  <AlogP>  (700) 
3.94

>  <Smiles>  (700) 
Cc1ccc(C(=O)NC(C)C)cc1-c1ccc(C(=O)NCC2CC2)cc1

>  <Standard Type>  (700) 
Inhibition

>  <Standard Relation>  (700) 
'='

>  <Standard Units>  (700) 
%

>  <Standard Value>  (700) 
-3.45

>  <Assay ChEMBL ID>  (700) 
CHEMBL1962241

>  <Assay Description>  (700) 
GSK_PKIS: ALK mean inhibition at 1 uM [Nanosyn]

>  <BAO Format ID>  (700) 
BAO_0000357

>  <BAO Label>  (700) 
single protein format

>  <Assay Organism>  (700) 
None

>  <Target ChEMBL ID>  (700) 
CHEMBL4247

>  <Target Name>  (700) 
ALK tyrosine kinase receptor

>  <Target Organism>  (700) 
Homo sapiens

>  <Target Type>  (700) 
SINGLE PROTEIN

>  <Document ChEMBL ID>  (700) 
CHEMBL1961873

>  <Source Description>  (700) 
GSK Published Kinase Inhibitor Set

>  <Document Journal>  (700) 
nan

>  <Document Year>  (700) 
nan

>  <Active>  (700) 
0.0

>  <bits>  (700) 
<rdkit.DataStructs.cDataStructs.ExplicitBitVect object at 0x000002422F1E8B30>

>  <Group>  (700) 
G2

$$$$

     RDKit          2D

 32 35  0  0  0  0  0  0  0  0999 V2000
    1.3299    5.6152    0.0000 C   0  0  0  0  0  0  0  0  0  0  0  0
   -0.0967    5.1517    0.0000 O   0  0  0  0  0  0  0  0  0  0  0  0
   -0.4086    3.6844    0.0000 C   0  0  0  0  0  0  0  0  0  0  0  0
    0.7062    2.6807    0.0000 C   0  0  0  0  0  0  0  0  0  0  0  0
    0.3943    1.2135    0.0000 C   0  0  0  0  0  0  0  0  0  0  0  0
    1.2760    0.0000    0.0000 N   0  0  0  0  0  0  0  0  0  0  0  0
    0.3943   -1.2135    0.0000 C   0  0  0  0  0  0  0  0  0  0  0  0
   -1.0323   -0.7500    0.0000 N   0  0  0  0  0  0  0  0  0  0  0  0
   -2.2458   -1.6317    0.0000 C   0  0  0  0  0  0  0  0  0  0  0  0
   -2.2458   -3.1317    0.0000 C   0  0  0  0  0  0  0  0  0  0  0  0
   -3.6724   -3.5952    0.0000 C   0  0  0  0  0  0  0  0  0  0  0  0
   -4.1359   -5.0218    0.0000 O   0  0  0  0  0  0  0  0  0  0  0  0
   -5.6031   -5.3337    0.0000 C   0  0  0  0  0  0  0  0  0  0  0  0
   -6.0667   -6.7602    0.0000 C   0  0  0  0  0  0  0  0  0  0  0  0
   -7.5339   -7.0721    0.0000 C   0  0  0  0  0  0  0  0  0  0  0  0
   -7.9974   -8.4987    0.0000 C   0  0  0  0  0  0  0  0  0  0  0  0
   -6.9937   -9.6134    0.0000 C   0  0  0  0  0  0  0  0  0  0  0  0
   -5.5265   -9.3015    0.0000 C   0  0  0  0  0  0  0  0  0  0  0  0
   -5.0630   -7.8750    0.0000 C   0  0  0  0  0  0  0  0  0  0  0  0
   -3.5958   -7.5631    0.0000 S   0  0  0  0  0  0  0  0  0  0  0  0
   -2.1285   -7.2512    0.0000 C   0  0  0  0  0  0  0  0  0  0  0  0
   -3.9076   -6.0959    0.0000 O   0  0  0  0  0  0  0  0  0  0  0  0
   -3.2839   -9.0303    0.0000 O   0  0  0  0  0  0  0  0  0  0  0  0
   -4.5541   -2.3817    0.0000 C   0  0  0  0  0  0  0  0  0  0  0  0
   -6.0541   -2.3817    0.0000 C   0  0  0  0  0  0  0  0  0  0  0  0
   -7.5541   -2.3817    0.0000 N   0  0  0  0  0  0  0  0  0  0  0  0
   -3.6724   -1.1682    0.0000 S   0  0  0  0  0  0  0  0  0  0  0  0
   -1.0323    0.7500    0.0000 C   0  0  0  0  0  0  0  0  0  0  0  0
   -2.1470    1.7537    0.0000 C   0  0  0  0  0  0  0  0  0  0  0  0
   -1.8351    3.2209    0.0000 C   0  0  0  0  0  0  0  0  0  0  0  0
   -2.9499    4.2246    0.0000 O   0  0  0  0  0  0  0  0  0  0  0  0
   -4.3764    3.7611    0.0000 C   0  0  0  0  0  0  0  0  0  0  0  0
  1  2  1  0
  2  3  1  0
  3  4  2  0
  4  5  1  0
  5  6  1  0
  6  7  2  0
  7  8  1  0
  8  9  1  0
  9 10  2  0
 10 11  1  0
 11 12  1  0
 12 13  1  0
 13 14  1  0
 14 15  2  0
 15 16  1  0
 16 17  2  0
 17 18  1  0
 18 19  2  0
 19 20  1  0
 20 21  1  0
 20 22  2  0
 20 23  2  0
 11 24  2  0
 24 25  1  0
 25 26  3  0
 24 27  1  0
  8 28  1  0
 28 29  1  0
 29 30  2  0
 30 31  1  0
 31 32  1  0
 30  3  1  0
 28  5  2  0
 27  9  1  0
 19 14  1  0
M  END
>  <Compound_ID>  (701) 
CHEMBL373751

>  <Molecule Name>  (701) 
GSK-319347A

>  <Molecular Weight>  (701) 
469.54

>  <AlogP>  (701) 
3.96

>  <Smiles>  (701) 
COc1cc2ncn(-c3cc(OCc4ccccc4S(C)(=O)=O)c(C#N)s3)c2cc1OC

>  <Standard Type>  (701) 
Inhibition

>  <Standard Relation>  (701) 
'='

>  <Standard Units>  (701) 
%

>  <Standard Value>  (701) 
4.25

>  <Assay ChEMBL ID>  (701) 
CHEMBL1962240

>  <Assay Description>  (701) 
GSK_PKIS: ALK mean inhibition at 0.1 uM [Nanosyn]

>  <BAO Format ID>  (701) 
BAO_0000357

>  <BAO Label>  (701) 
single protein format

>  <Assay Organism>  (701) 
None

>  <Target ChEMBL ID>  (701) 
CHEMBL4247

>  <Target Name>  (701) 
ALK tyrosine kinase receptor

>  <Target Organism>  (701) 
Homo sapiens

>  <Target Type>  (701) 
SINGLE PROTEIN

>  <Document ChEMBL ID>  (701) 
CHEMBL1961873

>  <Source Description>  (701) 
GSK Published Kinase Inhibitor Set

>  <Document Journal>  (701) 
nan

>  <Document Year>  (701) 
nan

>  <Active>  (701) 
0.0

>  <bits>  (701) 
<rdkit.DataStructs.cDataStructs.ExplicitBitVect object at 0x000002422F1E8350>

>  <Group>  (701) 
G2

$$$$

     RDKit          2D

 23 26  0  0  0  0  0  0  0  0999 V2000
   -5.8875   -6.5486    0.0000 C   0  0  0  0  0  0  0  0  0  0  0  0
   -4.6740   -7.4303    0.0000 C   0  0  0  0  0  0  0  0  0  0  0  0
   -4.8308   -8.9221    0.0000 C   0  0  0  0  0  0  0  0  0  0  0  0
   -3.3037   -6.8202    0.0000 N   0  0  0  0  0  0  0  0  0  0  0  0
   -2.9918   -5.3529    0.0000 N   0  0  0  0  0  0  0  0  0  0  0  0
   -1.5000   -5.1962    0.0000 C   0  0  0  0  0  0  0  0  0  0  0  0
   -0.7500   -3.8971    0.0000 C   0  0  0  0  0  0  0  0  0  0  0  0
    0.7500   -3.8971    0.0000 C   0  0  0  0  0  0  0  0  0  0  0  0
    1.5000   -2.5981    0.0000 C   0  0  0  0  0  0  0  0  0  0  0  0
    0.7500   -1.2990    0.0000 C   0  0  0  0  0  0  0  0  0  0  0  0
    1.5000    0.0000    0.0000 N   0  0  0  0  0  0  0  0  0  0  0  0
    0.7500    1.2990    0.0000 C   0  0  0  0  0  0  0  0  0  0  0  0
   -0.7500    1.2990    0.0000 C   0  0  0  0  0  0  0  0  0  0  0  0
   -1.5000    0.0000    0.0000 C   0  0  0  0  0  0  0  0  0  0  0  0
   -0.7500   -1.2990    0.0000 C   0  0  0  0  0  0  0  0  0  0  0  0
   -1.5000   -2.5981    0.0000 C   0  0  0  0  0  0  0  0  0  0  0  0
   -0.8899   -6.5665    0.0000 C   0  0  0  0  0  0  0  0  0  0  0  0
    0.5367   -7.0300    0.0000 C   0  0  0  0  0  0  0  0  0  0  0  0
    1.6514   -6.0263    0.0000 N   0  0  0  0  0  0  0  0  0  0  0  0
    0.8486   -8.4972    0.0000 N   0  0  0  0  0  0  0  0  0  0  0  0
   -0.2662   -9.5009    0.0000 C   0  0  0  0  0  0  0  0  0  0  0  0
   -1.6927   -9.0374    0.0000 N   0  0  0  0  0  0  0  0  0  0  0  0
   -2.0046   -7.5702    0.0000 C   0  0  0  0  0  0  0  0  0  0  0  0
  1  2  1  0
  2  3  1  0
  2  4  1  0
  4  5  1  0
  5  6  2  0
  6  7  1  0
  7  8  2  0
  8  9  1  0
  9 10  2  0
 10 11  1  0
 11 12  2  0
 12 13  1  0
 13 14  2  0
 14 15  1  0
 15 16  2  0
  6 17  1  0
 17 18  2  0
 18 19  1  0
 18 20  1  0
 20 21  2  0
 21 22  1  0
 22 23  2  0
 23  4  1  0
 16  7  1  0
 23 17  1  0
 15 10  1  0
M  END
>  <Compound_ID>  (702) 
CHEMBL1233882

>  <Molecule Name>  (702) 
nan

>  <Molecular Weight>  (702) 
304.36

>  <AlogP>  (702) 
3.2

>  <Smiles>  (702) 
CC(C)n1nc(-c2ccc3ncccc3c2)c2c(N)ncnc21

>  <Standard Type>  (702) 
Inhibition

>  <Standard Relation>  (702) 
'='

>  <Standard Units>  (702) 
%

>  <Standard Value>  (702) 
7.0

>  <Assay ChEMBL ID>  (702) 
CHEMBL1243991

>  <Assay Description>  (702) 
Inhibition of ALK at 1 uM after 60 mins by FRET assay in presence of 10 uM ATP

>  <BAO Format ID>  (702) 
BAO_0000357

>  <BAO Label>  (702) 
single protein format

>  <Assay Organism>  (702) 
None

>  <Target ChEMBL ID>  (702) 
CHEMBL4247

>  <Target Name>  (702) 
ALK tyrosine kinase receptor

>  <Target Organism>  (702) 
Homo sapiens

>  <Target Type>  (702) 
SINGLE PROTEIN

>  <Document ChEMBL ID>  (702) 
CHEMBL1240340

>  <Source Description>  (702) 
Scientific Literature

>  <Document Journal>  (702) 
Nat Chem Biol

>  <Document Year>  (702) 
2008.0

>  <Active>  (702) 
0.0

>  <bits>  (702) 
<rdkit.DataStructs.cDataStructs.ExplicitBitVect object at 0x000002422F1EA650>

>  <Group>  (702) 
G2

$$$$

     RDKit          2D

 23 26  0  0  0  0  0  0  0  0999 V2000
   -1.8373   -5.6601    0.0000 O   0  0  0  0  0  0  0  0  0  0  0  0
   -2.9520   -4.6564    0.0000 C   0  0  0  0  0  0  0  0  0  0  0  0
   -2.6401   -3.1891    0.0000 N   0  0  0  0  0  0  0  0  0  0  0  0
   -1.2135   -2.7256    0.0000 C   0  0  0  0  0  0  0  0  0  0  0  0
   -0.0000   -3.6073    0.0000 N   0  0  0  0  0  0  0  0  0  0  0  0
    1.2135   -2.7256    0.0000 N   0  0  0  0  0  0  0  0  0  0  0  0
    0.7500   -1.2990    0.0000 C   0  0  0  0  0  0  0  0  0  0  0  0
    1.5000    0.0000    0.0000 C   0  0  0  0  0  0  0  0  0  0  0  0
    0.7500    1.2990    0.0000 C   0  0  0  0  0  0  0  0  0  0  0  0
    1.5000    2.5981    0.0000 C   0  0  0  0  0  0  0  0  0  0  0  0
    3.0000    2.5981    0.0000 C   0  0  0  0  0  0  0  0  0  0  0  0
    3.7500    3.8971    0.0000 C   0  0  0  0  0  0  0  0  0  0  0  0
    5.2500    3.8971    0.0000 F   0  0  0  0  0  0  0  0  0  0  0  0
    3.0000    5.1962    0.0000 C   0  0  0  0  0  0  0  0  0  0  0  0
    1.5000    5.1962    0.0000 C   0  0  0  0  0  0  0  0  0  0  0  0
    0.7500    3.8971    0.0000 C   0  0  0  0  0  0  0  0  0  0  0  0
   -0.7500    3.8971    0.0000 F   0  0  0  0  0  0  0  0  0  0  0  0
   -0.7500    1.2990    0.0000 C   0  0  0  0  0  0  0  0  0  0  0  0
   -1.5000    0.0000    0.0000 C   0  0  0  0  0  0  0  0  0  0  0  0
   -0.7500   -1.2990    0.0000 C   0  0  0  0  0  0  0  0  0  0  0  0
   -4.3786   -5.1199    0.0000 C   0  0  0  0  0  0  0  0  0  0  0  0
   -5.3823   -6.2346    0.0000 C   0  0  0  0  0  0  0  0  0  0  0  0
   -5.8458   -4.8080    0.0000 C   0  0  0  0  0  0  0  0  0  0  0  0
  1  2  2  0
  2  3  1  0
  3  4  1  0
  4  5  2  0
  5  6  1  0
  6  7  1  0
  7  8  2  0
  8  9  1  0
  9 10  1  0
 10 11  2  0
 11 12  1  0
 12 13  1  0
 12 14  2  0
 14 15  1  0
 15 16  2  0
 16 17  1  0
  9 18  2  0
 18 19  1  0
 19 20  2  0
  2 21  1  0
 21 22  1  0
 22 23  1  0
 20  4  1  0
 23 21  1  0
 20  7  1  0
 16 10  1  0
M  END
>  <Compound_ID>  (703) 
CHEMBL261440

>  <Molecule Name>  (703) 
nan

>  <Molecular Weight>  (703) 
313.31

>  <AlogP>  (703) 
3.86

>  <Smiles>  (703) 
O=C(Nc1n[nH]c2cc(-c3cc(F)ccc3F)ccc12)C1CC1

>  <Standard Type>  (703) 
Inhibition

>  <Standard Relation>  (703) 
'='

>  <Standard Units>  (703) 
%

>  <Standard Value>  (703) 
4.05

>  <Assay ChEMBL ID>  (703) 
CHEMBL1962241

>  <Assay Description>  (703) 
GSK_PKIS: ALK mean inhibition at 1 uM [Nanosyn]

>  <BAO Format ID>  (703) 
BAO_0000357

>  <BAO Label>  (703) 
single protein format

>  <Assay Organism>  (703) 
None

>  <Target ChEMBL ID>  (703) 
CHEMBL4247

>  <Target Name>  (703) 
ALK tyrosine kinase receptor

>  <Target Organism>  (703) 
Homo sapiens

>  <Target Type>  (703) 
SINGLE PROTEIN

>  <Document ChEMBL ID>  (703) 
CHEMBL1961873

>  <Source Description>  (703) 
GSK Published Kinase Inhibitor Set

>  <Document Journal>  (703) 
nan

>  <Document Year>  (703) 
nan

>  <Active>  (703) 
0.0

>  <bits>  (703) 
<rdkit.DataStructs.cDataStructs.ExplicitBitVect object at 0x000002422F1E8BA0>

>  <Group>  (703) 
G2

$$$$

     RDKit          2D

 31 33  0  0  0  0  0  0  0  0999 V2000
    4.7010   -3.3481    0.0000 C   0  0  0  0  0  0  0  0  0  0  0  0
    6.0000   -2.5981    0.0000 C   0  0  0  0  0  0  0  0  0  0  0  0
    7.2990   -1.8481    0.0000 C   0  0  0  0  0  0  0  0  0  0  0  0
    6.7500   -3.8971    0.0000 C   0  0  0  0  0  0  0  0  0  0  0  0
    6.0000   -5.1962    0.0000 O   0  0  0  0  0  0  0  0  0  0  0  0
    5.2500   -1.2990    0.0000 C   0  0  0  0  0  0  0  0  0  0  0  0
    3.7500   -1.2990    0.0000 N   0  0  0  0  0  0  0  0  0  0  0  0
    3.0000    0.0000    0.0000 C   0  0  0  0  0  0  0  0  0  0  0  0
    3.7500    1.2990    0.0000 O   0  0  0  0  0  0  0  0  0  0  0  0
    1.5000    0.0000    0.0000 C   0  0  0  0  0  0  0  0  0  0  0  0
    0.7500   -1.2990    0.0000 C   0  0  0  0  0  0  0  0  0  0  0  0
   -0.7500   -1.2990    0.0000 C   0  0  0  0  0  0  0  0  0  0  0  0
   -1.5000    0.0000    0.0000 C   0  0  0  0  0  0  0  0  0  0  0  0
   -0.7500    1.2990    0.0000 C   0  0  0  0  0  0  0  0  0  0  0  0
    0.7500    1.2990    0.0000 C   0  0  0  0  0  0  0  0  0  0  0  0
   -1.7537    2.4138    0.0000 C   0  0  0  0  0  0  0  0  0  0  0  0
   -1.4418    3.8810    0.0000 N   0  0  0  0  0  0  0  0  0  0  0  0
   -2.5565    4.8847    0.0000 N   0  0  0  0  0  0  0  0  0  0  0  0
   -2.2447    6.3519    0.0000 C   0  0  0  0  0  0  0  0  0  0  0  0
   -0.8181    6.8154    0.0000 C   0  0  0  0  0  0  0  0  0  0  0  0
   -0.5062    8.2826    0.0000 C   0  0  0  0  0  0  0  0  0  0  0  0
   -1.6209    9.2863    0.0000 C   0  0  0  0  0  0  0  0  0  0  0  0
   -1.3091   10.7536    0.0000 S   0  0  0  0  0  0  0  0  0  0  0  0
   -0.9972   12.2208    0.0000 N   0  0  0  0  0  0  0  0  0  0  0  0
    0.1581   10.4417    0.0000 O   0  0  0  0  0  0  0  0  0  0  0  0
   -2.7763   11.0654    0.0000 O   0  0  0  0  0  0  0  0  0  0  0  0
   -3.0475    8.8228    0.0000 C   0  0  0  0  0  0  0  0  0  0  0  0
   -3.3594    7.3556    0.0000 C   0  0  0  0  0  0  0  0  0  0  0  0
   -3.1240    1.8037    0.0000 C   0  0  0  0  0  0  0  0  0  0  0  0
   -4.4231    2.5537    0.0000 O   0  0  0  0  0  0  0  0  0  0  0  0
   -2.9672    0.3119    0.0000 N   0  0  0  0  0  0  0  0  0  0  0  0
  1  2  1  0
  2  3  1  0
  2  4  1  0
  4  5  1  0
  2  6  1  0
  6  7  1  0
  7  8  1  0
  8  9  2  0
  8 10  1  0
 10 11  2  0
 11 12  1  0
 12 13  2  0
 13 14  1  0
 14 15  2  0
 14 16  1  0
 16 17  2  0
 17 18  1  0
 18 19  1  0
 19 20  2  0
 20 21  1  0
 21 22  2  0
 22 23  1  0
 23 24  1  0
 23 25  2  0
 23 26  2  0
 22 27  1  0
 27 28  2  0
 16 29  1  0
 29 30  2  0
 29 31  1  0
 15 10  1  0
 28 19  1  0
 31 13  1  0
M  END
>  <Compound_ID>  (704) 
CHEMBL410072

>  <Molecule Name>  (704) 
GW301784X

>  <Molecular Weight>  (704) 
445.5

>  <AlogP>  (704) 
0.85

>  <Smiles>  (704) 
CC(C)(CO)CNC(=O)c1ccc2c(c1)/C(=N/Nc1ccc(S(N)(=O)=O)cc1)C(=O)N2

>  <Standard Type>  (704) 
Inhibition

>  <Standard Relation>  (704) 
'='

>  <Standard Units>  (704) 
%

>  <Standard Value>  (704) 
-1.23

>  <Assay ChEMBL ID>  (704) 
CHEMBL1962241

>  <Assay Description>  (704) 
GSK_PKIS: ALK mean inhibition at 1 uM [Nanosyn]

>  <BAO Format ID>  (704) 
BAO_0000357

>  <BAO Label>  (704) 
single protein format

>  <Assay Organism>  (704) 
None

>  <Target ChEMBL ID>  (704) 
CHEMBL4247

>  <Target Name>  (704) 
ALK tyrosine kinase receptor

>  <Target Organism>  (704) 
Homo sapiens

>  <Target Type>  (704) 
SINGLE PROTEIN

>  <Document ChEMBL ID>  (704) 
CHEMBL1961873

>  <Source Description>  (704) 
GSK Published Kinase Inhibitor Set

>  <Document Journal>  (704) 
nan

>  <Document Year>  (704) 
nan

>  <Active>  (704) 
0.0

>  <bits>  (704) 
<rdkit.DataStructs.cDataStructs.ExplicitBitVect object at 0x000002422F1E9380>

>  <Group>  (704) 
G2

$$$$

     RDKit          2D

 23 26  0  0  0  0  0  0  0  0999 V2000
    3.0000   -7.7942    0.0000 C   0  0  0  0  0  0  0  0  0  0  0  0
    3.7500   -6.4952    0.0000 O   0  0  0  0  0  0  0  0  0  0  0  0
    3.0000   -5.1962    0.0000 C   0  0  0  0  0  0  0  0  0  0  0  0
    1.5000   -5.1962    0.0000 C   0  0  0  0  0  0  0  0  0  0  0  0
    0.7500   -3.8971    0.0000 C   0  0  0  0  0  0  0  0  0  0  0  0
    1.5000   -2.5981    0.0000 C   0  0  0  0  0  0  0  0  0  0  0  0
    0.7500   -1.2990    0.0000 C   0  0  0  0  0  0  0  0  0  0  0  0
    1.5000    0.0000    0.0000 C   0  0  0  0  0  0  0  0  0  0  0  0
    0.7500    1.2990    0.0000 C   0  0  0  0  0  0  0  0  0  0  0  0
   -0.7500    1.2990    0.0000 C   0  0  0  0  0  0  0  0  0  0  0  0
   -1.7537    2.4138    0.0000 C   0  0  0  0  0  0  0  0  0  0  0  0
   -1.4418    3.8810    0.0000 N   0  0  0  0  0  0  0  0  0  0  0  0
   -2.5565    4.8847    0.0000 C   0  0  0  0  0  0  0  0  0  0  0  0
   -3.9831    4.4211    0.0000 O   0  0  0  0  0  0  0  0  0  0  0  0
   -2.2447    6.3519    0.0000 C   0  0  0  0  0  0  0  0  0  0  0  0
   -2.7082    7.7785    0.0000 C   0  0  0  0  0  0  0  0  0  0  0  0
   -1.2410    7.4666    0.0000 C   0  0  0  0  0  0  0  0  0  0  0  0
   -3.1240    1.8037    0.0000 N   0  0  0  0  0  0  0  0  0  0  0  0
   -2.9672    0.3119    0.0000 N   0  0  0  0  0  0  0  0  0  0  0  0
   -1.5000    0.0000    0.0000 C   0  0  0  0  0  0  0  0  0  0  0  0
   -0.7500   -1.2990    0.0000 N   0  0  0  0  0  0  0  0  0  0  0  0
    3.0000   -2.5981    0.0000 C   0  0  0  0  0  0  0  0  0  0  0  0
    3.7500   -3.8971    0.0000 C   0  0  0  0  0  0  0  0  0  0  0  0
  1  2  1  0
  2  3  1  0
  3  4  2  0
  4  5  1  0
  5  6  2  0
  6  7  1  0
  7  8  2  0
  8  9  1  0
  9 10  2  0
 10 11  1  0
 11 12  1  0
 12 13  1  0
 13 14  2  0
 13 15  1  0
 15 16  1  0
 16 17  1  0
 11 18  2  0
 18 19  1  0
 19 20  1  0
 20 21  2  0
  6 22  1  0
 22 23  2  0
 23  3  1  0
 21  7  1  0
 20 10  1  0
 17 15  1  0
M  END
>  <Compound_ID>  (705) 
CHEMBL408732

>  <Molecule Name>  (705) 
nan

>  <Molecular Weight>  (705) 
308.34

>  <AlogP>  (705) 
2.98

>  <Smiles>  (705) 
COc1ccc(-c2ccc3c(NC(=O)C4CC4)n[nH]c3n2)cc1

>  <Standard Type>  (705) 
Inhibition

>  <Standard Relation>  (705) 
'='

>  <Standard Units>  (705) 
%

>  <Standard Value>  (705) 
1.76

>  <Assay ChEMBL ID>  (705) 
CHEMBL1962241

>  <Assay Description>  (705) 
GSK_PKIS: ALK mean inhibition at 1 uM [Nanosyn]

>  <BAO Format ID>  (705) 
BAO_0000357

>  <BAO Label>  (705) 
single protein format

>  <Assay Organism>  (705) 
None

>  <Target ChEMBL ID>  (705) 
CHEMBL4247

>  <Target Name>  (705) 
ALK tyrosine kinase receptor

>  <Target Organism>  (705) 
Homo sapiens

>  <Target Type>  (705) 
SINGLE PROTEIN

>  <Document ChEMBL ID>  (705) 
CHEMBL1961873

>  <Source Description>  (705) 
GSK Published Kinase Inhibitor Set

>  <Document Journal>  (705) 
nan

>  <Document Year>  (705) 
nan

>  <Active>  (705) 
0.0

>  <bits>  (705) 
<rdkit.DataStructs.cDataStructs.ExplicitBitVect object at 0x000002422F1E90E0>

>  <Group>  (705) 
G2

$$$$

     RDKit          2D

 33 36  0  0  0  0  0  0  0  0999 V2000
  -10.0849   -6.9740    0.0000 N   0  0  0  0  0  0  0  0  0  0  0  0
   -8.6583   -6.5105    0.0000 S   0  0  0  0  0  0  0  0  0  0  0  0
   -9.1218   -5.0839    0.0000 O   0  0  0  0  0  0  0  0  0  0  0  0
   -8.1948   -7.9371    0.0000 O   0  0  0  0  0  0  0  0  0  0  0  0
   -7.2317   -6.0469    0.0000 C   0  0  0  0  0  0  0  0  0  0  0  0
   -6.9199   -4.5797    0.0000 C   0  0  0  0  0  0  0  0  0  0  0  0
   -5.4933   -4.1162    0.0000 C   0  0  0  0  0  0  0  0  0  0  0  0
   -4.3786   -5.1199    0.0000 C   0  0  0  0  0  0  0  0  0  0  0  0
   -2.9520   -4.6564    0.0000 N   0  0  0  0  0  0  0  0  0  0  0  0
   -2.6401   -3.1891    0.0000 N   0  0  0  0  0  0  0  0  0  0  0  0
   -1.2135   -2.7256    0.0000 C   0  0  0  0  0  0  0  0  0  0  0  0
   -0.0000   -3.6073    0.0000 C   0  0  0  0  0  0  0  0  0  0  0  0
    0.0000   -5.1073    0.0000 O   0  0  0  0  0  0  0  0  0  0  0  0
    1.2135   -2.7256    0.0000 N   0  0  0  0  0  0  0  0  0  0  0  0
    0.7500   -1.2990    0.0000 C   0  0  0  0  0  0  0  0  0  0  0  0
    1.5000    0.0000    0.0000 C   0  0  0  0  0  0  0  0  0  0  0  0
    0.7500    1.2990    0.0000 C   0  0  0  0  0  0  0  0  0  0  0  0
   -0.7500    1.2990    0.0000 C   0  0  0  0  0  0  0  0  0  0  0  0
   -1.5000    2.5981    0.0000 C   0  0  0  0  0  0  0  0  0  0  0  0
   -3.0000    2.5981    0.0000 O   0  0  0  0  0  0  0  0  0  0  0  0
   -0.7500    3.8971    0.0000 N   0  0  0  0  0  0  0  0  0  0  0  0
   -1.5000    5.1962    0.0000 C   0  0  0  0  0  0  0  0  0  0  0  0
   -0.7500    6.4952    0.0000 C   0  0  0  0  0  0  0  0  0  0  0  0
   -1.5000    7.7942    0.0000 C   0  0  0  0  0  0  0  0  0  0  0  0
   -0.7500    9.0933    0.0000 N   0  0  0  0  0  0  0  0  0  0  0  0
   -1.3601   10.4636    0.0000 C   0  0  0  0  0  0  0  0  0  0  0  0
   -0.2454   11.4673    0.0000 C   0  0  0  0  0  0  0  0  0  0  0  0
    1.0537   10.7173    0.0000 N   0  0  0  0  0  0  0  0  0  0  0  0
    0.7418    9.2501    0.0000 C   0  0  0  0  0  0  0  0  0  0  0  0
   -1.5000    0.0000    0.0000 C   0  0  0  0  0  0  0  0  0  0  0  0
   -0.7500   -1.2990    0.0000 C   0  0  0  0  0  0  0  0  0  0  0  0
   -4.6904   -6.5871    0.0000 C   0  0  0  0  0  0  0  0  0  0  0  0
   -6.1170   -7.0506    0.0000 C   0  0  0  0  0  0  0  0  0  0  0  0
  1  2  1  0
  2  3  2  0
  2  4  2  0
  2  5  1  0
  5  6  2  0
  6  7  1  0
  7  8  2  0
  8  9  1  0
  9 10  1  0
 10 11  2  0
 11 12  1  0
 12 13  2  0
 12 14  1  0
 14 15  1  0
 15 16  2  0
 16 17  1  0
 17 18  2  0
 18 19  1  0
 19 20  2  0
 19 21  1  0
 21 22  1  0
 22 23  1  0
 23 24  1  0
 24 25  1  0
 25 26  1  0
 26 27  2  0
 27 28  1  0
 28 29  2  0
 18 30  1  0
 30 31  2  0
  8 32  1  0
 32 33  2  0
 33  5  1  0
 31 11  1  0
 31 15  1  0
 29 25  1  0
M  END
>  <Compound_ID>  (706) 
CHEMBL272026

>  <Molecule Name>  (706) 
GW290597X

>  <Molecular Weight>  (706) 
467.51

>  <AlogP>  (706) 
1.12

>  <Smiles>  (706) 
NS(=O)(=O)c1ccc(N/N=C2\C(=O)Nc3ccc(C(=O)NCCCn4ccnc4)cc32)cc1

>  <Standard Type>  (706) 
Inhibition

>  <Standard Relation>  (706) 
'='

>  <Standard Units>  (706) 
%

>  <Standard Value>  (706) 
11.1

>  <Assay ChEMBL ID>  (706) 
CHEMBL1962241

>  <Assay Description>  (706) 
GSK_PKIS: ALK mean inhibition at 1 uM [Nanosyn]

>  <BAO Format ID>  (706) 
BAO_0000357

>  <BAO Label>  (706) 
single protein format

>  <Assay Organism>  (706) 
None

>  <Target ChEMBL ID>  (706) 
CHEMBL4247

>  <Target Name>  (706) 
ALK tyrosine kinase receptor

>  <Target Organism>  (706) 
Homo sapiens

>  <Target Type>  (706) 
SINGLE PROTEIN

>  <Document ChEMBL ID>  (706) 
CHEMBL1961873

>  <Source Description>  (706) 
GSK Published Kinase Inhibitor Set

>  <Document Journal>  (706) 
nan

>  <Document Year>  (706) 
nan

>  <Active>  (706) 
0.0

>  <bits>  (706) 
<rdkit.DataStructs.cDataStructs.ExplicitBitVect object at 0x000002422F1E9E70>

>  <Group>  (706) 
G2

$$$$

     RDKit          2D

 17 19  0  0  0  0  0  0  0  0999 V2000
   -3.7548   -2.1855    0.0000 C   0  0  0  0  0  0  0  0  0  0  0  0
   -2.6401   -3.1891    0.0000 C   0  0  0  0  0  0  0  0  0  0  0  0
   -1.2135   -2.7256    0.0000 N   0  0  0  0  0  0  0  0  0  0  0  0
   -0.0000   -3.6073    0.0000 C   0  0  0  0  0  0  0  0  0  0  0  0
   -0.0000   -5.1073    0.0000 C   0  0  0  0  0  0  0  0  0  0  0  0
    1.2135   -5.9890    0.0000 N   0  0  0  0  0  0  0  0  0  0  0  0
    0.7500   -7.4156    0.0000 O   0  0  0  0  0  0  0  0  0  0  0  0
   -0.7500   -7.4156    0.0000 N   0  0  0  0  0  0  0  0  0  0  0  0
   -1.2135   -5.9890    0.0000 C   0  0  0  0  0  0  0  0  0  0  0  0
   -2.6401   -5.5255    0.0000 N   0  0  0  0  0  0  0  0  0  0  0  0
    1.2135   -2.7256    0.0000 N   0  0  0  0  0  0  0  0  0  0  0  0
    0.7500   -1.2990    0.0000 C   0  0  0  0  0  0  0  0  0  0  0  0
    1.5000    0.0000    0.0000 C   0  0  0  0  0  0  0  0  0  0  0  0
    0.7500    1.2990    0.0000 C   0  0  0  0  0  0  0  0  0  0  0  0
   -0.7500    1.2990    0.0000 C   0  0  0  0  0  0  0  0  0  0  0  0
   -1.5000    0.0000    0.0000 C   0  0  0  0  0  0  0  0  0  0  0  0
   -0.7500   -1.2990    0.0000 C   0  0  0  0  0  0  0  0  0  0  0  0
  1  2  1  0
  2  3  1  0
  3  4  1  0
  4  5  1  0
  5  6  2  0
  6  7  1  0
  7  8  1  0
  8  9  2  0
  9 10  1  0
  4 11  2  0
 11 12  1  0
 12 13  2  0
 13 14  1  0
 14 15  2  0
 15 16  1  0
 16 17  2  0
 17  3  1  0
  9  5  1  0
 17 12  1  0
M  END
>  <Compound_ID>  (707) 
CHEMBL365286

>  <Molecule Name>  (707) 
GW549034X

>  <Molecular Weight>  (707) 
229.24

>  <AlogP>  (707) 
1.69

>  <Smiles>  (707) 
CCn1c(-c2nonc2N)nc2ccccc21

>  <Standard Type>  (707) 
Inhibition

>  <Standard Relation>  (707) 
'='

>  <Standard Units>  (707) 
%

>  <Standard Value>  (707) 
1.5

>  <Assay ChEMBL ID>  (707) 
CHEMBL1962240

>  <Assay Description>  (707) 
GSK_PKIS: ALK mean inhibition at 0.1 uM [Nanosyn]

>  <BAO Format ID>  (707) 
BAO_0000357

>  <BAO Label>  (707) 
single protein format

>  <Assay Organism>  (707) 
None

>  <Target ChEMBL ID>  (707) 
CHEMBL4247

>  <Target Name>  (707) 
ALK tyrosine kinase receptor

>  <Target Organism>  (707) 
Homo sapiens

>  <Target Type>  (707) 
SINGLE PROTEIN

>  <Document ChEMBL ID>  (707) 
CHEMBL1961873

>  <Source Description>  (707) 
GSK Published Kinase Inhibitor Set

>  <Document Journal>  (707) 
nan

>  <Document Year>  (707) 
nan

>  <Active>  (707) 
0.0

>  <bits>  (707) 
<rdkit.DataStructs.cDataStructs.ExplicitBitVect object at 0x000002422F1EA880>

>  <Group>  (707) 
G2

$$$$

     RDKit          2D

 22 25  0  0  0  0  0  0  0  0999 V2000
    4.0519   -4.9608    0.0000 C   0  0  0  0  0  0  0  0  0  0  0  0
    3.0482   -6.0755    0.0000 C   0  0  0  0  0  0  0  0  0  0  0  0
    3.5118   -7.5021    0.0000 C   0  0  0  0  0  0  0  0  0  0  0  0
    2.5081   -8.6168    0.0000 C   0  0  0  0  0  0  0  0  0  0  0  0
    1.0409   -8.3049    0.0000 C   0  0  0  0  0  0  0  0  0  0  0  0
    0.5773   -6.8783    0.0000 C   0  0  0  0  0  0  0  0  0  0  0  0
   -0.8899   -6.5665    0.0000 C   0  0  0  0  0  0  0  0  0  0  0  0
   -2.0046   -7.5702    0.0000 N   0  0  0  0  0  0  0  0  0  0  0  0
   -3.3037   -6.8202    0.0000 N   0  0  0  0  0  0  0  0  0  0  0  0
   -2.9918   -5.3529    0.0000 C   0  0  0  0  0  0  0  0  0  0  0  0
   -1.5000   -5.1962    0.0000 C   0  0  0  0  0  0  0  0  0  0  0  0
   -0.7500   -3.8971    0.0000 C   0  0  0  0  0  0  0  0  0  0  0  0
    0.7500   -3.8971    0.0000 C   0  0  0  0  0  0  0  0  0  0  0  0
    1.5000   -2.5981    0.0000 C   0  0  0  0  0  0  0  0  0  0  0  0
    0.7500   -1.2990    0.0000 C   0  0  0  0  0  0  0  0  0  0  0  0
    1.5000    0.0000    0.0000 N   0  0  0  0  0  0  0  0  0  0  0  0
    0.7500    1.2990    0.0000 C   0  0  0  0  0  0  0  0  0  0  0  0
   -0.7500    1.2990    0.0000 C   0  0  0  0  0  0  0  0  0  0  0  0
   -1.5000    0.0000    0.0000 C   0  0  0  0  0  0  0  0  0  0  0  0
   -0.7500   -1.2990    0.0000 C   0  0  0  0  0  0  0  0  0  0  0  0
   -1.5000   -2.5981    0.0000 N   0  0  0  0  0  0  0  0  0  0  0  0
    1.5810   -5.7636    0.0000 N   0  0  0  0  0  0  0  0  0  0  0  0
  1  2  1  0
  2  3  2  0
  3  4  1  0
  4  5  2  0
  5  6  1  0
  6  7  1  0
  7  8  2  0
  8  9  1  0
  9 10  1  0
 10 11  2  0
 11 12  1  0
 12 13  2  0
 13 14  1  0
 14 15  2  0
 15 16  1  0
 16 17  2  0
 17 18  1  0
 18 19  2  0
 19 20  1  0
 20 21  2  0
  6 22  2  0
 22  2  1  0
 11  7  1  0
 21 12  1  0
 20 15  1  0
M  END
>  <Compound_ID>  (708) 
CHEMBL185238

>  <Molecule Name>  (708) 
GW786460X

>  <Molecular Weight>  (708) 
287.33

>  <AlogP>  (708) 
3.39

>  <Smiles>  (708) 
Cc1cccc(-c2n[nH]cc2-c2ccc3ncccc3n2)n1

>  <Standard Type>  (708) 
Inhibition

>  <Standard Relation>  (708) 
'='

>  <Standard Units>  (708) 
%

>  <Standard Value>  (708) 
2.05

>  <Assay ChEMBL ID>  (708) 
CHEMBL1962240

>  <Assay Description>  (708) 
GSK_PKIS: ALK mean inhibition at 0.1 uM [Nanosyn]

>  <BAO Format ID>  (708) 
BAO_0000357

>  <BAO Label>  (708) 
single protein format

>  <Assay Organism>  (708) 
None

>  <Target ChEMBL ID>  (708) 
CHEMBL4247

>  <Target Name>  (708) 
ALK tyrosine kinase receptor

>  <Target Organism>  (708) 
Homo sapiens

>  <Target Type>  (708) 
SINGLE PROTEIN

>  <Document ChEMBL ID>  (708) 
CHEMBL1961873

>  <Source Description>  (708) 
GSK Published Kinase Inhibitor Set

>  <Document Journal>  (708) 
nan

>  <Document Year>  (708) 
nan

>  <Active>  (708) 
0.0

>  <bits>  (708) 
<rdkit.DataStructs.cDataStructs.ExplicitBitVect object at 0x000002422F1E82E0>

>  <Group>  (708) 
G2

$$$$

     RDKit          2D

 24 27  0  0  0  0  0  0  0  0999 V2000
    7.5000   -5.1962    0.0000 C   0  0  0  0  0  0  0  0  0  0  0  0
    6.0000   -5.1962    0.0000 O   0  0  0  0  0  0  0  0  0  0  0  0
    5.2500   -6.4952    0.0000 C   0  0  0  0  0  0  0  0  0  0  0  0
    6.0000   -7.7942    0.0000 C   0  0  0  0  0  0  0  0  0  0  0  0
    5.2500   -9.0933    0.0000 C   0  0  0  0  0  0  0  0  0  0  0  0
    3.7500   -9.0933    0.0000 C   0  0  0  0  0  0  0  0  0  0  0  0
    3.0000   -7.7942    0.0000 C   0  0  0  0  0  0  0  0  0  0  0  0
    3.7500   -6.4952    0.0000 C   0  0  0  0  0  0  0  0  0  0  0  0
    3.0000   -5.1962    0.0000 N   0  0  0  0  0  0  0  0  0  0  0  0
    3.7500   -3.8971    0.0000 C   0  0  0  0  0  0  0  0  0  0  0  0
    3.0000   -2.5981    0.0000 C   0  0  0  0  0  0  0  0  0  0  0  0
    1.5000   -2.5981    0.0000 N   0  0  0  0  0  0  0  0  0  0  0  0
    0.7500   -1.2990    0.0000 C   0  0  0  0  0  0  0  0  0  0  0  0
    1.5000    0.0000    0.0000 N   0  0  0  0  0  0  0  0  0  0  0  0
    0.7500    1.2990    0.0000 C   0  0  0  0  0  0  0  0  0  0  0  0
   -0.7500    1.2990    0.0000 N   0  0  0  0  0  0  0  0  0  0  0  0
   -1.5000    0.0000    0.0000 C   0  0  0  0  0  0  0  0  0  0  0  0
   -2.9672   -0.3119    0.0000 N   0  0  0  0  0  0  0  0  0  0  0  0
   -3.1240   -1.8037    0.0000 N   0  0  0  0  0  0  0  0  0  0  0  0
   -1.7537   -2.4138    0.0000 C   0  0  0  0  0  0  0  0  0  0  0  0
   -1.4418   -3.8810    0.0000 Br  0  0  0  0  0  0  0  0  0  0  0  0
   -0.7500   -1.2990    0.0000 C   0  0  0  0  0  0  0  0  0  0  0  0
    0.7500   -3.8971    0.0000 C   0  0  0  0  0  0  0  0  0  0  0  0
    1.5000   -5.1962    0.0000 C   0  0  0  0  0  0  0  0  0  0  0  0
  1  2  1  0
  2  3  1  0
  3  4  2  0
  4  5  1  0
  5  6  2  0
  6  7  1  0
  7  8  2  0
  8  9  1  0
  9 10  1  0
 10 11  1  0
 11 12  1  0
 12 13  1  0
 13 14  2  0
 14 15  1  0
 15 16  2  0
 16 17  1  0
 17 18  1  0
 18 19  1  0
 19 20  2  0
 20 21  1  0
 20 22  1  0
 12 23  1  0
 23 24  1  0
  8  3  1  0
 24  9  1  0
 22 13  1  0
 22 17  2  0
M  END
>  <Compound_ID>  (709) 
CHEMBL1254209

>  <Molecule Name>  (709) 
nan

>  <Molecular Weight>  (709) 
389.26

>  <AlogP>  (709) 
2.45

>  <Smiles>  (709) 
COc1ccccc1N1CCN(c2ncnc3[nH]nc(Br)c23)CC1

>  <Standard Type>  (709) 
Inhibition

>  <Standard Relation>  (709) 
'='

>  <Standard Units>  (709) 
%

>  <Standard Value>  (709) 
10.0

>  <Assay ChEMBL ID>  (709) 
CHEMBL1251632

>  <Assay Description>  (709) 
Inhibition of ALK at 1 uM in presence of 10 uM ATP by Select Screen kinase assay relative to untreated control

>  <BAO Format ID>  (709) 
BAO_0000357

>  <BAO Label>  (709) 
single protein format

>  <Assay Organism>  (709) 
None

>  <Target ChEMBL ID>  (709) 
CHEMBL4247

>  <Target Name>  (709) 
ALK tyrosine kinase receptor

>  <Target Organism>  (709) 
Homo sapiens

>  <Target Type>  (709) 
SINGLE PROTEIN

>  <Document ChEMBL ID>  (709) 
CHEMBL1250448

>  <Source Description>  (709) 
Scientific Literature

>  <Document Journal>  (709) 
Nat Chem Biol

>  <Document Year>  (709) 
2009.0

>  <Active>  (709) 
0.0

>  <bits>  (709) 
<rdkit.DataStructs.cDataStructs.ExplicitBitVect object at 0x000002422F1E86D0>

>  <Group>  (709) 
G2

$$$$

     RDKit          2D

 20 21  0  0  0  0  0  0  0  0999 V2000
    5.2500   -1.2990    0.0000 C   0  0  0  0  0  0  0  0  0  0  0  0
    3.7500   -1.2990    0.0000 N   0  0  0  0  0  0  0  0  0  0  0  0
    3.0000    0.0000    0.0000 C   0  0  0  0  0  0  0  0  0  0  0  0
    3.7500    1.2990    0.0000 O   0  0  0  0  0  0  0  0  0  0  0  0
    1.5000    0.0000    0.0000 C   0  0  0  0  0  0  0  0  0  0  0  0
    0.7500   -1.2990    0.0000 C   0  0  0  0  0  0  0  0  0  0  0  0
   -0.7500   -1.2990    0.0000 N   0  0  0  0  0  0  0  0  0  0  0  0
   -1.5000    0.0000    0.0000 C   0  0  0  0  0  0  0  0  0  0  0  0
   -0.7500    1.2990    0.0000 C   0  0  0  0  0  0  0  0  0  0  0  0
   -1.5000    2.5981    0.0000 C   0  0  0  0  0  0  0  0  0  0  0  0
   -0.7500    3.8971    0.0000 C   0  0  0  0  0  0  0  0  0  0  0  0
   -1.5000    5.1962    0.0000 C   0  0  0  0  0  0  0  0  0  0  0  0
   -0.7500    6.4952    0.0000 C   0  0  0  0  0  0  0  0  0  0  0  0
    0.7500    6.4952    0.0000 Cl  0  0  0  0  0  0  0  0  0  0  0  0
   -1.5000    7.7942    0.0000 C   0  0  0  0  0  0  0  0  0  0  0  0
   -3.0000    7.7942    0.0000 C   0  0  0  0  0  0  0  0  0  0  0  0
   -3.7500    6.4952    0.0000 C   0  0  0  0  0  0  0  0  0  0  0  0
   -3.0000    5.1962    0.0000 C   0  0  0  0  0  0  0  0  0  0  0  0
   -3.7500    3.8971    0.0000 Cl  0  0  0  0  0  0  0  0  0  0  0  0
    0.7500    1.2990    0.0000 C   0  0  0  0  0  0  0  0  0  0  0  0
  1  2  1  0
  2  3  1  0
  3  4  2  0
  3  5  1  0
  5  6  2  0
  6  7  1  0
  7  8  2  0
  8  9  1  0
  9 10  1  0
 10 11  2  0
 11 12  1  0
 12 13  2  0
 13 14  1  0
 13 15  1  0
 15 16  2  0
 16 17  1  0
 17 18  2  0
 18 19  1  0
  9 20  2  0
 20  5  1  0
 18 12  1  0
M  END
>  <Compound_ID>  (710) 
CHEMBL263796

>  <Molecule Name>  (710) 
GW445014X

>  <Molecular Weight>  (710) 
307.18

>  <AlogP>  (710) 
3.92

>  <Smiles>  (710) 
CNC(=O)c1cncc(/C=C/c2c(Cl)cccc2Cl)c1

>  <Standard Type>  (710) 
Inhibition

>  <Standard Relation>  (710) 
'='

>  <Standard Units>  (710) 
%

>  <Standard Value>  (710) 
9.12

>  <Assay ChEMBL ID>  (710) 
CHEMBL1962241

>  <Assay Description>  (710) 
GSK_PKIS: ALK mean inhibition at 1 uM [Nanosyn]

>  <BAO Format ID>  (710) 
BAO_0000357

>  <BAO Label>  (710) 
single protein format

>  <Assay Organism>  (710) 
None

>  <Target ChEMBL ID>  (710) 
CHEMBL4247

>  <Target Name>  (710) 
ALK tyrosine kinase receptor

>  <Target Organism>  (710) 
Homo sapiens

>  <Target Type>  (710) 
SINGLE PROTEIN

>  <Document ChEMBL ID>  (710) 
CHEMBL1961873

>  <Source Description>  (710) 
GSK Published Kinase Inhibitor Set

>  <Document Journal>  (710) 
nan

>  <Document Year>  (710) 
nan

>  <Active>  (710) 
0.0

>  <bits>  (710) 
<rdkit.DataStructs.cDataStructs.ExplicitBitVect object at 0x000002422F1EA6C0>

>  <Group>  (710) 
G2

$$$$

     RDKit          2D

 22 25  0  0  0  0  0  0  0  0999 V2000
   -8.3202   -4.8037    0.0000 C   0  0  0  0  0  0  0  0  0  0  0  0
   -7.0211   -4.0537    0.0000 C   0  0  0  0  0  0  0  0  0  0  0  0
   -7.0211   -2.5537    0.0000 C   0  0  0  0  0  0  0  0  0  0  0  0
   -5.7221   -1.8037    0.0000 C   0  0  0  0  0  0  0  0  0  0  0  0
   -4.4231   -2.5537    0.0000 C   0  0  0  0  0  0  0  0  0  0  0  0
   -3.1240   -1.8037    0.0000 C   0  0  0  0  0  0  0  0  0  0  0  0
   -1.7537   -2.4138    0.0000 C   0  0  0  0  0  0  0  0  0  0  0  0
   -0.7500   -1.2990    0.0000 C   0  0  0  0  0  0  0  0  0  0  0  0
    0.7500   -1.2990    0.0000 C   0  0  0  0  0  0  0  0  0  0  0  0
    1.5000   -2.5981    0.0000 N   0  0  0  0  0  0  0  0  0  0  0  0
    3.0000   -2.5981    0.0000 C   0  0  0  0  0  0  0  0  0  0  0  0
    3.7500   -1.2990    0.0000 O   0  0  0  0  0  0  0  0  0  0  0  0
    3.7500   -3.8971    0.0000 C   0  0  0  0  0  0  0  0  0  0  0  0
    5.0490   -4.6471    0.0000 C   0  0  0  0  0  0  0  0  0  0  0  0
    3.7500   -5.3971    0.0000 C   0  0  0  0  0  0  0  0  0  0  0  0
    1.5000    0.0000    0.0000 N   0  0  0  0  0  0  0  0  0  0  0  0
    0.7500    1.2990    0.0000 C   0  0  0  0  0  0  0  0  0  0  0  0
   -0.7500    1.2990    0.0000 N   0  0  0  0  0  0  0  0  0  0  0  0
   -1.5000    0.0000    0.0000 C   0  0  0  0  0  0  0  0  0  0  0  0
   -2.9672   -0.3119    0.0000 O   0  0  0  0  0  0  0  0  0  0  0  0
   -4.4231   -4.0537    0.0000 C   0  0  0  0  0  0  0  0  0  0  0  0
   -5.7221   -4.8037    0.0000 C   0  0  0  0  0  0  0  0  0  0  0  0
  1  2  1  0
  2  3  2  0
  3  4  1  0
  4  5  2  0
  5  6  1  0
  6  7  2  0
  7  8  1  0
  8  9  2  0
  9 10  1  0
 10 11  1  0
 11 12  2  0
 11 13  1  0
 13 14  1  0
 14 15  1  0
  9 16  1  0
 16 17  2  0
 17 18  1  0
 18 19  2  0
 19 20  1  0
  5 21  1  0
 21 22  2  0
 22  2  1  0
 20  6  1  0
 19  8  1  0
 15 13  1  0
M  END
>  <Compound_ID>  (711) 
CHEMBL182283

>  <Molecule Name>  (711) 
GW819230X

>  <Molecular Weight>  (711) 
293.33

>  <AlogP>  (711) 
3.55

>  <Smiles>  (711) 
Cc1ccc(-c2cc3c(NC(=O)C4CC4)ncnc3o2)cc1

>  <Standard Type>  (711) 
Inhibition

>  <Standard Relation>  (711) 
'='

>  <Standard Units>  (711) 
%

>  <Standard Value>  (711) 
4.09

>  <Assay ChEMBL ID>  (711) 
CHEMBL1962240

>  <Assay Description>  (711) 
GSK_PKIS: ALK mean inhibition at 0.1 uM [Nanosyn]

>  <BAO Format ID>  (711) 
BAO_0000357

>  <BAO Label>  (711) 
single protein format

>  <Assay Organism>  (711) 
None

>  <Target ChEMBL ID>  (711) 
CHEMBL4247

>  <Target Name>  (711) 
ALK tyrosine kinase receptor

>  <Target Organism>  (711) 
Homo sapiens

>  <Target Type>  (711) 
SINGLE PROTEIN

>  <Document ChEMBL ID>  (711) 
CHEMBL1961873

>  <Source Description>  (711) 
GSK Published Kinase Inhibitor Set

>  <Document Journal>  (711) 
nan

>  <Document Year>  (711) 
nan

>  <Active>  (711) 
0.0

>  <bits>  (711) 
<rdkit.DataStructs.cDataStructs.ExplicitBitVect object at 0x000002422F1E9690>

>  <Group>  (711) 
G2

$$$$

     RDKit          2D

 24 26  0  0  0  0  0  0  0  0999 V2000
    3.0000    0.0000    0.0000 C   0  0  0  0  0  0  0  0  0  0  0  0
    1.5000    0.0000    0.0000 C   0  0  0  0  0  0  0  0  0  0  0  0
    0.7500   -1.2990    0.0000 C   0  0  0  0  0  0  0  0  0  0  0  0
   -0.7500   -1.2990    0.0000 C   0  0  0  0  0  0  0  0  0  0  0  0
   -1.5000    0.0000    0.0000 C   0  0  0  0  0  0  0  0  0  0  0  0
   -3.0000    0.0000    0.0000 S   0  0  0  0  0  0  0  0  0  0  0  0
   -3.0000    1.5000    0.0000 O   0  0  0  0  0  0  0  0  0  0  0  0
   -3.0000   -1.5000    0.0000 O   0  0  0  0  0  0  0  0  0  0  0  0
   -4.5000    0.0000    0.0000 N   0  0  0  0  0  0  0  0  0  0  0  0
   -5.2500   -1.2990    0.0000 C   0  0  0  0  0  0  0  0  0  0  0  0
   -6.7500   -1.2990    0.0000 C   0  0  0  0  0  0  0  0  0  0  0  0
   -7.5000   -2.5981    0.0000 C   0  0  0  0  0  0  0  0  0  0  0  0
   -6.7500   -3.8971    0.0000 C   0  0  0  0  0  0  0  0  0  0  0  0
   -7.5000   -5.1962    0.0000 O   0  0  0  0  0  0  0  0  0  0  0  0
   -5.2500   -3.8971    0.0000 C   0  0  0  0  0  0  0  0  0  0  0  0
   -4.5000   -5.1962    0.0000 S   0  0  0  0  0  0  0  0  0  0  0  0
   -3.0000   -5.1962    0.0000 C   0  0  0  0  0  0  0  0  0  0  0  0
   -2.1183   -3.9826    0.0000 N   0  0  0  0  0  0  0  0  0  0  0  0
   -0.6917   -4.4462    0.0000 C   0  0  0  0  0  0  0  0  0  0  0  0
   -0.6917   -5.9462    0.0000 N   0  0  0  0  0  0  0  0  0  0  0  0
   -2.1183   -6.4097    0.0000 N   0  0  0  0  0  0  0  0  0  0  0  0
   -4.5000   -2.5981    0.0000 C   0  0  0  0  0  0  0  0  0  0  0  0
   -0.7500    1.2990    0.0000 C   0  0  0  0  0  0  0  0  0  0  0  0
    0.7500    1.2990    0.0000 C   0  0  0  0  0  0  0  0  0  0  0  0
  1  2  1  0
  2  3  2  0
  3  4  1  0
  4  5  2  0
  5  6  1  0
  6  7  2  0
  6  8  2  0
  6  9  1  0
  9 10  1  0
 10 11  2  0
 11 12  1  0
 12 13  2  0
 13 14  1  0
 13 15  1  0
 15 16  1  0
 16 17  1  0
 17 18  1  0
 18 19  2  0
 19 20  1  0
 20 21  1  0
 15 22  2  0
  5 23  1  0
 23 24  2  0
 24  2  1  0
 22 10  1  0
 21 17  2  0
M  END
>  <Compound_ID>  (712) 
CHEMBL1497487

>  <Molecule Name>  (712) 
nan

>  <Molecular Weight>  (712) 
362.44

>  <AlogP>  (712) 
2.77

>  <Smiles>  (712) 
Cc1ccc(S(=O)(=O)Nc2ccc(O)c(Sc3nc[nH]n3)c2)cc1

>  <Standard Type>  (712) 
Inhibition

>  <Standard Relation>  (712) 
'='

>  <Standard Units>  (712) 
%

>  <Standard Value>  (712) 
15.33

>  <Assay ChEMBL ID>  (712) 
CHEMBL2438115

>  <Assay Description>  (712) 
Inhibition of ALK (unknown origin) at 10 uM after 30 mins by fluorescence assay relative to control

>  <BAO Format ID>  (712) 
BAO_0000357

>  <BAO Label>  (712) 
single protein format

>  <Assay Organism>  (712) 
Homo sapiens

>  <Target ChEMBL ID>  (712) 
CHEMBL4247

>  <Target Name>  (712) 
ALK tyrosine kinase receptor

>  <Target Organism>  (712) 
Homo sapiens

>  <Target Type>  (712) 
SINGLE PROTEIN

>  <Document ChEMBL ID>  (712) 
CHEMBL2434840

>  <Source Description>  (712) 
Scientific Literature

>  <Document Journal>  (712) 
Eur J Med Chem

>  <Document Year>  (712) 
2013.0

>  <Active>  (712) 
0.0

>  <bits>  (712) 
<rdkit.DataStructs.cDataStructs.ExplicitBitVect object at 0x000002422F1E9BD0>

>  <Group>  (712) 
G2

$$$$

     RDKit          2D

 29 33  0  0  0  0  0  0  0  0999 V2000
   -5.2046    0.1696    0.0000 N   0  0  0  0  0  0  0  0  0  0  0  0
   -5.6682   -1.2570    0.0000 C   0  0  0  0  0  0  0  0  0  0  0  0
   -6.1317   -2.6836    0.0000 C   0  0  0  0  0  0  0  0  0  0  0  0
   -5.2500   -3.8971    0.0000 C   0  0  0  0  0  0  0  0  0  0  0  0
   -3.7500   -3.8971    0.0000 N   0  0  0  0  0  0  0  0  0  0  0  0
   -3.0000   -2.5981    0.0000 C   0  0  0  0  0  0  0  0  0  0  0  0
   -3.7500   -1.2990    0.0000 O   0  0  0  0  0  0  0  0  0  0  0  0
   -1.5000   -2.5981    0.0000 C   0  0  0  0  0  0  0  0  0  0  0  0
   -0.7500   -3.8971    0.0000 C   0  0  0  0  0  0  0  0  0  0  0  0
    0.7500   -3.8971    0.0000 C   0  0  0  0  0  0  0  0  0  0  0  0
    1.5000   -2.5981    0.0000 C   0  0  0  0  0  0  0  0  0  0  0  0
    0.7500   -1.2990    0.0000 C   0  0  0  0  0  0  0  0  0  0  0  0
    1.5000    0.0000    0.0000 C   0  0  0  0  0  0  0  0  0  0  0  0
    0.7500    1.2990    0.0000 C   0  0  0  0  0  0  0  0  0  0  0  0
   -0.7500    1.2990    0.0000 C   0  0  0  0  0  0  0  0  0  0  0  0
   -1.5000    0.0000    0.0000 C   0  0  0  0  0  0  0  0  0  0  0  0
   -0.7500   -1.2990    0.0000 C   0  0  0  0  0  0  0  0  0  0  0  0
   -6.1317   -5.1106    0.0000 S   0  0  0  0  0  0  0  0  0  0  0  0
   -7.5583   -4.6471    0.0000 C   0  0  0  0  0  0  0  0  0  0  0  0
   -7.5583   -3.1471    0.0000 C   0  0  0  0  0  0  0  0  0  0  0  0
   -8.8573   -2.3971    0.0000 C   0  0  0  0  0  0  0  0  0  0  0  0
  -10.1563   -3.1471    0.0000 C   0  0  0  0  0  0  0  0  0  0  0  0
  -10.1563   -4.6471    0.0000 C   0  0  0  0  0  0  0  0  0  0  0  0
   -8.8573   -5.3971    0.0000 N   0  0  0  0  0  0  0  0  0  0  0  0
   -8.8573   -6.8971    0.0000 C   0  0  0  0  0  0  0  0  0  0  0  0
   -7.5583   -7.6471    0.0000 O   0  0  0  0  0  0  0  0  0  0  0  0
  -10.1563   -7.6471    0.0000 C   0  0  0  0  0  0  0  0  0  0  0  0
  -10.9063   -8.9462    0.0000 C   0  0  0  0  0  0  0  0  0  0  0  0
  -11.6563   -7.6471    0.0000 C   0  0  0  0  0  0  0  0  0  0  0  0
  1  2  3  0
  2  3  1  0
  3  4  2  0
  4  5  1  0
  5  6  1  0
  6  7  2  0
  6  8  1  0
  8  9  2  0
  9 10  1  0
 10 11  2  0
 11 12  1  0
 12 13  2  0
 13 14  1  0
 14 15  2  0
 15 16  1  0
 16 17  2  0
  4 18  1  0
 18 19  1  0
 19 20  2  0
 20 21  1  0
 21 22  1  0
 22 23  1  0
 23 24  1  0
 24 25  1  0
 25 26  2  0
 25 27  1  0
 27 28  1  0
 28 29  1  0
 20  3  1  0
 29 27  1  0
 17  8  1  0
 24 19  1  0
 17 12  1  0
M  END
>  <Compound_ID>  (713) 
CHEMBL232601

>  <Molecule Name>  (713) 
GW846105X

>  <Molecular Weight>  (713) 
401.49

>  <AlogP>  (713) 
4.71

>  <Smiles>  (713) 
N#Cc1c(NC(=O)c2cccc3ccccc23)sc2c1CCCN2C(=O)C1CC1

>  <Standard Type>  (713) 
Inhibition

>  <Standard Relation>  (713) 
'='

>  <Standard Units>  (713) 
%

>  <Standard Value>  (713) 
5.36

>  <Assay ChEMBL ID>  (713) 
CHEMBL1962240

>  <Assay Description>  (713) 
GSK_PKIS: ALK mean inhibition at 0.1 uM [Nanosyn]

>  <BAO Format ID>  (713) 
BAO_0000357

>  <BAO Label>  (713) 
single protein format

>  <Assay Organism>  (713) 
None

>  <Target ChEMBL ID>  (713) 
CHEMBL4247

>  <Target Name>  (713) 
ALK tyrosine kinase receptor

>  <Target Organism>  (713) 
Homo sapiens

>  <Target Type>  (713) 
SINGLE PROTEIN

>  <Document ChEMBL ID>  (713) 
CHEMBL1961873

>  <Source Description>  (713) 
GSK Published Kinase Inhibitor Set

>  <Document Journal>  (713) 
nan

>  <Document Year>  (713) 
nan

>  <Active>  (713) 
0.0

>  <bits>  (713) 
<rdkit.DataStructs.cDataStructs.ExplicitBitVect object at 0x000002422F1E8F20>

>  <Group>  (713) 
G2

$$$$

     RDKit          2D

 32 35  0  0  0  0  0  0  0  0999 V2000
  -12.7500   -3.8971    0.0000 C   0  0  0  0  0  0  0  0  0  0  0  0
  -12.0000   -5.1962    0.0000 O   0  0  0  0  0  0  0  0  0  0  0  0
  -10.5000   -5.1962    0.0000 C   0  0  0  0  0  0  0  0  0  0  0  0
   -9.7500   -3.8971    0.0000 C   0  0  0  0  0  0  0  0  0  0  0  0
   -8.2500   -3.8971    0.0000 C   0  0  0  0  0  0  0  0  0  0  0  0
   -7.5000   -5.1962    0.0000 C   0  0  0  0  0  0  0  0  0  0  0  0
   -6.0000   -5.1962    0.0000 C   0  0  0  0  0  0  0  0  0  0  0  0
   -5.2500   -3.8971    0.0000 C   0  0  0  0  0  0  0  0  0  0  0  0
   -3.7500   -3.8971    0.0000 C   0  0  0  0  0  0  0  0  0  0  0  0
   -3.0000   -5.1962    0.0000 O   0  0  0  0  0  0  0  0  0  0  0  0
   -3.0000   -2.5981    0.0000 N   0  0  0  0  0  0  0  0  0  0  0  0
   -1.5000   -2.5981    0.0000 C   0  0  0  0  0  0  0  0  0  0  0  0
   -0.7500   -3.8971    0.0000 C   0  0  0  0  0  0  0  0  0  0  0  0
    0.7500   -3.8971    0.0000 C   0  0  0  0  0  0  0  0  0  0  0  0
    1.5000   -5.1962    0.0000 S   0  0  0  0  0  0  0  0  0  0  0  0
    0.7500   -6.4952    0.0000 C   0  0  0  0  0  0  0  0  0  0  0  0
    1.3601   -7.8655    0.0000 N   0  0  0  0  0  0  0  0  0  0  0  0
    0.2454   -8.8692    0.0000 C   0  0  0  0  0  0  0  0  0  0  0  0
   -1.0537   -8.1192    0.0000 N   0  0  0  0  0  0  0  0  0  0  0  0
   -0.7418   -6.6520    0.0000 N   0  0  0  0  0  0  0  0  0  0  0  0
    1.5000   -2.5981    0.0000 C   0  0  0  0  0  0  0  0  0  0  0  0
    3.0000   -2.5981    0.0000 O   0  0  0  0  0  0  0  0  0  0  0  0
    0.7500   -1.2990    0.0000 C   0  0  0  0  0  0  0  0  0  0  0  0
    1.5000    0.0000    0.0000 C   0  0  0  0  0  0  0  0  0  0  0  0
    0.7500    1.2990    0.0000 C   0  0  0  0  0  0  0  0  0  0  0  0
   -0.7500    1.2990    0.0000 C   0  0  0  0  0  0  0  0  0  0  0  0
   -1.5000    0.0000    0.0000 C   0  0  0  0  0  0  0  0  0  0  0  0
   -0.7500   -1.2990    0.0000 C   0  0  0  0  0  0  0  0  0  0  0  0
   -8.2500   -6.4952    0.0000 C   0  0  0  0  0  0  0  0  0  0  0  0
   -9.7500   -6.4952    0.0000 C   0  0  0  0  0  0  0  0  0  0  0  0
  -10.5000   -7.7942    0.0000 O   0  0  0  0  0  0  0  0  0  0  0  0
   -9.7500   -9.0933    0.0000 C   0  0  0  0  0  0  0  0  0  0  0  0
  1  2  1  0
  2  3  1  0
  3  4  2  0
  4  5  1  0
  5  6  2  0
  6  7  1  0
  7  8  2  0
  8  9  1  0
  9 10  2  0
  9 11  1  0
 11 12  1  0
 12 13  2  0
 13 14  1  0
 14 15  1  0
 15 16  1  0
 16 17  2  0
 17 18  1  0
 18 19  2  0
 19 20  1  0
 14 21  2  0
 21 22  1  0
 21 23  1  0
 23 24  2  0
 24 25  1  0
 25 26  2  0
 26 27  1  0
 27 28  2  0
  6 29  1  0
 29 30  2  0
 30 31  1  0
 31 32  1  0
 30  3  1  0
 28 12  1  0
 20 16  1  0
 28 23  1  0
M  END
>  <Compound_ID>  (714) 
CHEMBL2391408

>  <Molecule Name>  (714) 
nan

>  <Molecular Weight>  (714) 
448.5

>  <AlogP>  (714) 
4.48

>  <Smiles>  (714) 
COc1ccc(/C=C/C(=O)Nc2cc(Sc3ncn[nH]3)c(O)c3ccccc23)cc1OC

>  <Standard Type>  (714) 
Inhibition

>  <Standard Relation>  (714) 
'='

>  <Standard Units>  (714) 
%

>  <Standard Value>  (714) 
14.87

>  <Assay ChEMBL ID>  (714) 
CHEMBL2394291

>  <Assay Description>  (714) 
Inhibition of ALK (unknown origin) at 10 uM after 30 mins by fluorescence assay

>  <BAO Format ID>  (714) 
BAO_0000357

>  <BAO Label>  (714) 
single protein format

>  <Assay Organism>  (714) 
Homo sapiens

>  <Target ChEMBL ID>  (714) 
CHEMBL4247

>  <Target Name>  (714) 
ALK tyrosine kinase receptor

>  <Target Organism>  (714) 
Homo sapiens

>  <Target Type>  (714) 
SINGLE PROTEIN

>  <Document ChEMBL ID>  (714) 
CHEMBL2390901

>  <Source Description>  (714) 
Scientific Literature

>  <Document Journal>  (714) 
Eur J Med Chem

>  <Document Year>  (714) 
2013.0

>  <Active>  (714) 
0.0

>  <bits>  (714) 
<rdkit.DataStructs.cDataStructs.ExplicitBitVect object at 0x000002422F1E8DD0>

>  <Group>  (714) 
G2

$$$$

     RDKit          2D

 34 37  0  0  0  0  0  0  0  0999 V2000
   -9.1645    1.7722    0.0000 C   0  0  0  0  0  0  0  0  0  0  0  0
   -8.0498    0.7685    0.0000 O   0  0  0  0  0  0  0  0  0  0  0  0
   -6.6232    1.2320    0.0000 C   0  0  0  0  0  0  0  0  0  0  0  0
   -6.3114    2.6992    0.0000 C   0  0  0  0  0  0  0  0  0  0  0  0
   -4.8848    3.1627    0.0000 C   0  0  0  0  0  0  0  0  0  0  0  0
   -3.7701    2.1590    0.0000 C   0  0  0  0  0  0  0  0  0  0  0  0
   -4.0819    0.6918    0.0000 C   0  0  0  0  0  0  0  0  0  0  0  0
   -2.9672   -0.3119    0.0000 N   0  0  0  0  0  0  0  0  0  0  0  0
   -3.1240   -1.8037    0.0000 N   0  0  0  0  0  0  0  0  0  0  0  0
   -1.7537   -2.4138    0.0000 C   0  0  0  0  0  0  0  0  0  0  0  0
   -0.7500   -1.2990    0.0000 C   0  0  0  0  0  0  0  0  0  0  0  0
    0.7500   -1.2990    0.0000 C   0  0  0  0  0  0  0  0  0  0  0  0
    1.5000   -2.5981    0.0000 N   0  0  0  0  0  0  0  0  0  0  0  0
    3.0000   -2.5981    0.0000 N   0  0  0  0  0  0  0  0  0  0  0  0
    3.7500   -3.8971    0.0000 C   0  0  0  0  0  0  0  0  0  0  0  0
    5.2500   -3.8971    0.0000 C   0  0  0  0  0  0  0  0  0  0  0  0
    6.0000   -5.1962    0.0000 C   0  0  0  0  0  0  0  0  0  0  0  0
    7.5000   -5.1962    0.0000 C   0  0  0  0  0  0  0  0  0  0  0  0
    8.2500   -3.8971    0.0000 C   0  0  0  0  0  0  0  0  0  0  0  0
    9.7500   -3.8971    0.0000 C   0  0  0  0  0  0  0  0  0  0  0  0
   10.5000   -2.5981    0.0000 O   0  0  0  0  0  0  0  0  0  0  0  0
   10.5000   -5.1962    0.0000 N   0  0  0  0  0  0  0  0  0  0  0  0
   12.0000   -5.1962    0.0000 C   0  0  0  0  0  0  0  0  0  0  0  0
   12.7500   -6.4952    0.0000 C   0  0  0  0  0  0  0  0  0  0  0  0
   14.2500   -6.4952    0.0000 N   0  0  0  0  0  0  0  0  0  0  0  0
   15.0000   -7.7942    0.0000 C   0  0  0  0  0  0  0  0  0  0  0  0
   15.0000   -5.1962    0.0000 C   0  0  0  0  0  0  0  0  0  0  0  0
    7.5000   -2.5981    0.0000 C   0  0  0  0  0  0  0  0  0  0  0  0
    6.0000   -2.5981    0.0000 C   0  0  0  0  0  0  0  0  0  0  0  0
    1.5000    0.0000    0.0000 N   0  0  0  0  0  0  0  0  0  0  0  0
    0.7500    1.2990    0.0000 C   0  0  0  0  0  0  0  0  0  0  0  0
   -0.7500    1.2990    0.0000 N   0  0  0  0  0  0  0  0  0  0  0  0
   -1.5000    0.0000    0.0000 C   0  0  0  0  0  0  0  0  0  0  0  0
   -5.5085    0.2283    0.0000 C   0  0  0  0  0  0  0  0  0  0  0  0
  1  2  1  0
  2  3  1  0
  3  4  2  0
  4  5  1  0
  5  6  2  0
  6  7  1  0
  7  8  1  0
  8  9  1  0
  9 10  2  0
 10 11  1  0
 11 12  2  0
 12 13  1  0
 13 14  1  0
 14 15  2  0
 15 16  1  0
 16 17  2  0
 17 18  1  0
 18 19  2  0
 19 20  1  0
 20 21  2  0
 20 22  1  0
 22 23  1  0
 23 24  1  0
 24 25  1  0
 25 26  1  0
 25 27  1  0
 19 28  1  0
 28 29  2  0
 12 30  1  0
 30 31  2  0
 31 32  1  0
 32 33  2  0
  7 34  2  0
 34  3  1  0
 33  8  1  0
 33 11  1  0
 29 16  1  0
M  END
>  <Compound_ID>  (715) 
CHEMBL1909383

>  <Molecule Name>  (715) 
GW784307A

>  <Molecular Weight>  (715) 
494.99

>  <AlogP>  (715) 
2.56

>  <Smiles>  (715) 
COc1cccc(-n2ncc3c(N/N=C/c4ccc(C(=O)NCCN(C)C)cc4)ncnc32)c1

>  <Standard Type>  (715) 
Inhibition

>  <Standard Relation>  (715) 
'='

>  <Standard Units>  (715) 
%

>  <Standard Value>  (715) 
3.26

>  <Assay ChEMBL ID>  (715) 
CHEMBL1962240

>  <Assay Description>  (715) 
GSK_PKIS: ALK mean inhibition at 0.1 uM [Nanosyn]

>  <BAO Format ID>  (715) 
BAO_0000357

>  <BAO Label>  (715) 
single protein format

>  <Assay Organism>  (715) 
None

>  <Target ChEMBL ID>  (715) 
CHEMBL4247

>  <Target Name>  (715) 
ALK tyrosine kinase receptor

>  <Target Organism>  (715) 
Homo sapiens

>  <Target Type>  (715) 
SINGLE PROTEIN

>  <Document ChEMBL ID>  (715) 
CHEMBL1961873

>  <Source Description>  (715) 
GSK Published Kinase Inhibitor Set

>  <Document Journal>  (715) 
nan

>  <Document Year>  (715) 
nan

>  <Active>  (715) 
0.0

>  <bits>  (715) 
<rdkit.DataStructs.cDataStructs.ExplicitBitVect object at 0x000002422F1EAE30>

>  <Group>  (715) 
G2

$$$$

     RDKit          2D

 36 40  0  0  0  0  0  0  0  0999 V2000
    3.7500  -16.8875    0.0000 N   0  0  0  0  0  0  0  0  0  0  0  0
    3.0000  -15.5885    0.0000 C   0  0  0  0  0  0  0  0  0  0  0  0
    1.5000  -15.5885    0.0000 N   0  0  0  0  0  0  0  0  0  0  0  0
    0.7500  -14.2894    0.0000 C   0  0  0  0  0  0  0  0  0  0  0  0
    1.5000  -12.9904    0.0000 C   0  0  0  0  0  0  0  0  0  0  0  0
    3.0000  -12.9904    0.0000 C   0  0  0  0  0  0  0  0  0  0  0  0
    3.7500  -11.6913    0.0000 O   0  0  0  0  0  0  0  0  0  0  0  0
    3.0000  -10.3923    0.0000 C   0  0  0  0  0  0  0  0  0  0  0  0
    3.7500   -9.0933    0.0000 C   0  0  0  0  0  0  0  0  0  0  0  0
    3.0000   -7.7942    0.0000 C   0  0  0  0  0  0  0  0  0  0  0  0
    1.5000   -7.7942    0.0000 C   0  0  0  0  0  0  0  0  0  0  0  0
    0.7500   -6.4952    0.0000 N   0  0  0  0  0  0  0  0  0  0  0  0
    1.5000   -5.1962    0.0000 C   0  0  0  0  0  0  0  0  0  0  0  0
    3.0000   -5.1962    0.0000 O   0  0  0  0  0  0  0  0  0  0  0  0
    0.7500   -3.8971    0.0000 C   0  0  0  0  0  0  0  0  0  0  0  0
    1.5000   -2.5981    0.0000 C   0  0  0  0  0  0  0  0  0  0  0  0
    0.7500   -1.2990    0.0000 C   0  0  0  0  0  0  0  0  0  0  0  0
    1.5000    0.0000    0.0000 C   0  0  0  0  0  0  0  0  0  0  0  0
    0.7500    1.2990    0.0000 C   0  0  0  0  0  0  0  0  0  0  0  0
   -0.7500    1.2990    0.0000 C   0  0  0  0  0  0  0  0  0  0  0  0
   -1.5000    0.0000    0.0000 C   0  0  0  0  0  0  0  0  0  0  0  0
   -0.7500   -1.2990    0.0000 C   0  0  0  0  0  0  0  0  0  0  0  0
   -1.5000   -2.5981    0.0000 N   0  0  0  0  0  0  0  0  0  0  0  0
   -3.0000   -2.5981    0.0000 C   0  0  0  0  0  0  0  0  0  0  0  0
   -3.7500   -1.2990    0.0000 C   0  0  0  0  0  0  0  0  0  0  0  0
   -5.2500   -1.2990    0.0000 C   0  0  0  0  0  0  0  0  0  0  0  0
   -6.0000   -2.5981    0.0000 C   0  0  0  0  0  0  0  0  0  0  0  0
   -5.2500   -3.8971    0.0000 C   0  0  0  0  0  0  0  0  0  0  0  0
   -3.7500   -3.8971    0.0000 C   0  0  0  0  0  0  0  0  0  0  0  0
   -0.7500   -3.8971    0.0000 C   0  0  0  0  0  0  0  0  0  0  0  0
   -1.5000   -5.1962    0.0000 O   0  0  0  0  0  0  0  0  0  0  0  0
    0.7500   -9.0933    0.0000 C   0  0  0  0  0  0  0  0  0  0  0  0
    1.5000  -10.3923    0.0000 C   0  0  0  0  0  0  0  0  0  0  0  0
    0.7500  -11.6913    0.0000 F   0  0  0  0  0  0  0  0  0  0  0  0
    3.7500  -14.2894    0.0000 C   0  0  0  0  0  0  0  0  0  0  0  0
    5.2500  -14.2894    0.0000 Cl  0  0  0  0  0  0  0  0  0  0  0  0
  1  2  1  0
  2  3  2  0
  3  4  1  0
  4  5  2  0
  5  6  1  0
  6  7  1  0
  7  8  1  0
  8  9  2  0
  9 10  1  0
 10 11  2  0
 11 12  1  0
 12 13  1  0
 13 14  2  0
 13 15  1  0
 15 16  2  0
 16 17  1  0
 17 18  2  0
 18 19  1  0
 19 20  2  0
 20 21  1  0
 21 22  2  0
 22 23  1  0
 23 24  1  0
 24 25  2  0
 25 26  1  0
 26 27  2  0
 27 28  1  0
 28 29  2  0
 23 30  1  0
 30 31  2  0
 11 32  1  0
 32 33  2  0
 33 34  1  0
  6 35  2  0
 35 36  1  0
 35  2  1  0
 33  8  1  0
 30 15  1  0
 22 17  1  0
 29 24  1  0
M  END
>  <Compound_ID>  (716) 
CHEMBL4582423

>  <Molecule Name>  (716) 
nan

>  <Molecular Weight>  (716) 
500.92

>  <AlogP>  (716) 
5.81

>  <Smiles>  (716) 
Nc1nccc(Oc2ccc(NC(=O)c3cc4ccccc4n(-c4ccccc4)c3=O)cc2F)c1Cl

>  <Standard Type>  (716) 
Inhibition

>  <Standard Relation>  (716) 
'='

>  <Standard Units>  (716) 
%

>  <Standard Value>  (716) 
18.1

>  <Assay ChEMBL ID>  (716) 
CHEMBL4432482

>  <Assay Description>  (716) 
Inhibition of recombinant ALK (unknown origin) at 1 uM using poly (Glu,Tyr)4:1 as substrate incubated for 60 mins by ELISA

>  <BAO Format ID>  (716) 
BAO_0000357

>  <BAO Label>  (716) 
single protein format

>  <Assay Organism>  (716) 
Homo sapiens

>  <Target ChEMBL ID>  (716) 
CHEMBL4247

>  <Target Name>  (716) 
ALK tyrosine kinase receptor

>  <Target Organism>  (716) 
Homo sapiens

>  <Target Type>  (716) 
SINGLE PROTEIN

>  <Document ChEMBL ID>  (716) 
CHEMBL4431350

>  <Source Description>  (716) 
Scientific Literature

>  <Document Journal>  (716) 
Bioorg Med Chem Lett

>  <Document Year>  (716) 
2016.0

>  <Active>  (716) 
0.0

>  <bits>  (716) 
<rdkit.DataStructs.cDataStructs.ExplicitBitVect object at 0x000002422F1EAC70>

>  <Group>  (716) 
G2

$$$$

     RDKit          2D

 34 37  0  0  0  0  0  0  0  0999 V2000
   -0.7500   -9.0933    0.0000 O   0  0  0  0  0  0  0  0  0  0  0  0
    0.7500   -9.0933    0.0000 C   0  0  0  0  0  0  0  0  0  0  0  0
    1.5000   -7.7942    0.0000 N   0  0  0  0  0  0  0  0  0  0  0  0
    0.7500   -6.4952    0.0000 C   0  0  0  0  0  0  0  0  0  0  0  0
    1.5000   -5.1962    0.0000 C   0  0  0  0  0  0  0  0  0  0  0  0
    0.7500   -3.8971    0.0000 C   0  0  0  0  0  0  0  0  0  0  0  0
    1.5000   -2.5981    0.0000 N   0  0  0  0  0  0  0  0  0  0  0  0
    0.7500   -1.2990    0.0000 C   0  0  0  0  0  0  0  0  0  0  0  0
    1.5000    0.0000    0.0000 N   0  0  0  0  0  0  0  0  0  0  0  0
    0.7500    1.2990    0.0000 C   0  0  0  0  0  0  0  0  0  0  0  0
    1.5000    2.5981    0.0000 N   0  0  0  0  0  0  0  0  0  0  0  0
    3.0000    2.5981    0.0000 C   0  0  0  0  0  0  0  0  0  0  0  0
    3.7500    1.2990    0.0000 C   0  0  0  0  0  0  0  0  0  0  0  0
    5.2500    1.2990    0.0000 C   0  0  0  0  0  0  0  0  0  0  0  0
    6.0000    2.5981    0.0000 C   0  0  0  0  0  0  0  0  0  0  0  0
    5.2500    3.8971    0.0000 C   0  0  0  0  0  0  0  0  0  0  0  0
    6.0000    5.1962    0.0000 N   0  0  0  0  0  0  0  0  0  0  0  0
    7.5000    5.1962    0.0000 C   0  0  0  0  0  0  0  0  0  0  0  0
    8.2500    3.8971    0.0000 O   0  0  0  0  0  0  0  0  0  0  0  0
    8.2500    6.4952    0.0000 N   0  0  0  0  0  0  0  0  0  0  0  0
    7.6399    7.8655    0.0000 C   0  0  0  0  0  0  0  0  0  0  0  0
    8.7546    8.8692    0.0000 C   0  0  0  0  0  0  0  0  0  0  0  0
   10.0537    8.1192    0.0000 C   0  0  0  0  0  0  0  0  0  0  0  0
    9.7418    6.6520    0.0000 C   0  0  0  0  0  0  0  0  0  0  0  0
    3.7500    3.8971    0.0000 C   0  0  0  0  0  0  0  0  0  0  0  0
   -0.7500    1.2990    0.0000 N   0  0  0  0  0  0  0  0  0  0  0  0
   -1.5000    0.0000    0.0000 C   0  0  0  0  0  0  0  0  0  0  0  0
   -0.7500   -1.2990    0.0000 C   0  0  0  0  0  0  0  0  0  0  0  0
   -1.5000   -2.5981    0.0000 I   0  0  0  0  0  0  0  0  0  0  0  0
    1.5000  -10.3923    0.0000 C   0  0  0  0  0  0  0  0  0  0  0  0
    2.9918  -10.5491    0.0000 C   0  0  0  0  0  0  0  0  0  0  0  0
    3.3037  -12.0163    0.0000 C   0  0  0  0  0  0  0  0  0  0  0  0
    2.0046  -12.7663    0.0000 C   0  0  0  0  0  0  0  0  0  0  0  0
    0.8899  -11.7626    0.0000 S   0  0  0  0  0  0  0  0  0  0  0  0
  1  2  2  0
  2  3  1  0
  3  4  1  0
  4  5  1  0
  5  6  1  0
  6  7  1  0
  7  8  1  0
  8  9  2  0
  9 10  1  0
 10 11  1  0
 11 12  1  0
 12 13  2  0
 13 14  1  0
 14 15  2  0
 15 16  1  0
 16 17  1  0
 17 18  1  0
 18 19  2  0
 18 20  1  0
 20 21  1  0
 21 22  1  0
 22 23  1  0
 23 24  1  0
 16 25  2  0
 10 26  2  0
 26 27  1  0
 27 28  2  0
 28 29  1  0
  2 30  1  0
 30 31  2  0
 31 32  1  0
 32 33  2  0
 33 34  1  0
 28  8  1  0
 34 30  1  0
 25 12  1  0
 24 20  1  0
M  END
>  <Compound_ID>  (717) 
CHEMBL577784

>  <Molecule Name>  (717) 
BX-795

>  <Molecular Weight>  (717) 
591.48

>  <AlogP>  (717) 
4.75

>  <Smiles>  (717) 
O=C(NCCCNc1nc(Nc2cccc(NC(=O)N3CCCC3)c2)ncc1I)c1cccs1

>  <Standard Type>  (717) 
Inhibition

>  <Standard Relation>  (717) 
'='

>  <Standard Units>  (717) 
%

>  <Standard Value>  (717) 
9.0

>  <Assay ChEMBL ID>  (717) 
CHEMBL1251632

>  <Assay Description>  (717) 
Inhibition of ALK at 1 uM in presence of 10 uM ATP by Select Screen kinase assay relative to untreated control

>  <BAO Format ID>  (717) 
BAO_0000357

>  <BAO Label>  (717) 
single protein format

>  <Assay Organism>  (717) 
None

>  <Target ChEMBL ID>  (717) 
CHEMBL4247

>  <Target Name>  (717) 
ALK tyrosine kinase receptor

>  <Target Organism>  (717) 
Homo sapiens

>  <Target Type>  (717) 
SINGLE PROTEIN

>  <Document ChEMBL ID>  (717) 
CHEMBL1250448

>  <Source Description>  (717) 
Scientific Literature

>  <Document Journal>  (717) 
Nat Chem Biol

>  <Document Year>  (717) 
2009.0

>  <Active>  (717) 
0.0

>  <bits>  (717) 
<rdkit.DataStructs.cDataStructs.ExplicitBitVect object at 0x000002422F1EAA40>

>  <Group>  (717) 
G2

$$$$

     RDKit          2D

 28 31  0  0  0  0  0  0  0  0999 V2000
   -3.5736    1.2902    0.0000 N   0  0  0  0  0  0  0  0  0  0  0  0
   -2.1470    1.7537    0.0000 C   0  0  0  0  0  0  0  0  0  0  0  0
   -1.8351    3.2209    0.0000 N   0  0  0  0  0  0  0  0  0  0  0  0
   -0.4086    3.6844    0.0000 C   0  0  0  0  0  0  0  0  0  0  0  0
    0.7062    2.6807    0.0000 C   0  0  0  0  0  0  0  0  0  0  0  0
    2.1328    3.1443    0.0000 C   0  0  0  0  0  0  0  0  0  0  0  0
    3.2475    2.1406    0.0000 C   0  0  0  0  0  0  0  0  0  0  0  0
    4.6741    2.6041    0.0000 C   0  0  0  0  0  0  0  0  0  0  0  0
    4.9859    4.0713    0.0000 C   0  0  0  0  0  0  0  0  0  0  0  0
    3.8712    5.0750    0.0000 C   0  0  0  0  0  0  0  0  0  0  0  0
    4.1831    6.5422    0.0000 S   0  0  0  0  0  0  0  0  0  0  0  0
    4.4949    8.0095    0.0000 N   0  0  0  0  0  0  0  0  0  0  0  0
    5.6503    6.2304    0.0000 O   0  0  0  0  0  0  0  0  0  0  0  0
    2.7158    6.8541    0.0000 O   0  0  0  0  0  0  0  0  0  0  0  0
    2.4446    4.6115    0.0000 C   0  0  0  0  0  0  0  0  0  0  0  0
    0.3943    1.2135    0.0000 C   0  0  0  0  0  0  0  0  0  0  0  0
    1.2760    0.0000    0.0000 S   0  0  0  0  0  0  0  0  0  0  0  0
    0.3943   -1.2135    0.0000 C   0  0  0  0  0  0  0  0  0  0  0  0
   -1.0323   -0.7500    0.0000 C   0  0  0  0  0  0  0  0  0  0  0  0
   -2.2458   -1.6317    0.0000 C   0  0  0  0  0  0  0  0  0  0  0  0
   -3.6161   -1.0216    0.0000 C   0  0  0  0  0  0  0  0  0  0  0  0
   -4.8297   -1.9033    0.0000 C   0  0  0  0  0  0  0  0  0  0  0  0
   -4.6729   -3.3950    0.0000 C   0  0  0  0  0  0  0  0  0  0  0  0
   -5.8864   -4.2767    0.0000 F   0  0  0  0  0  0  0  0  0  0  0  0
   -3.3025   -4.0051    0.0000 C   0  0  0  0  0  0  0  0  0  0  0  0
   -3.1458   -5.4969    0.0000 Cl  0  0  0  0  0  0  0  0  0  0  0  0
   -2.0890   -3.1235    0.0000 C   0  0  0  0  0  0  0  0  0  0  0  0
   -1.0323    0.7500    0.0000 C   0  0  0  0  0  0  0  0  0  0  0  0
  1  2  1  0
  2  3  2  0
  3  4  1  0
  4  5  2  0
  5  6  1  0
  6  7  2  0
  7  8  1  0
  8  9  2  0
  9 10  1  0
 10 11  1  0
 11 12  1  0
 11 13  2  0
 11 14  2  0
 10 15  2  0
  5 16  1  0
 16 17  1  0
 17 18  1  0
 18 19  2  0
 19 20  1  0
 20 21  2  0
 21 22  1  0
 22 23  2  0
 23 24  1  0
 23 25  1  0
 25 26  1  0
 25 27  2  0
 19 28  1  0
 28  2  1  0
 15  6  1  0
 28 16  2  0
 27 20  1  0
M  END
>  <Compound_ID>  (718) 
CHEMBL241517

>  <Molecule Name>  (718) 
GW856804X

>  <Molecular Weight>  (718) 
433.92

>  <AlogP>  (718) 
4.65

>  <Smiles>  (718) 
Nc1ncc(-c2cccc(S(N)(=O)=O)c2)c2scc(-c3ccc(F)c(Cl)c3)c12

>  <Standard Type>  (718) 
Inhibition

>  <Standard Relation>  (718) 
'='

>  <Standard Units>  (718) 
%

>  <Standard Value>  (718) 
13.85

>  <Assay ChEMBL ID>  (718) 
CHEMBL1962241

>  <Assay Description>  (718) 
GSK_PKIS: ALK mean inhibition at 1 uM [Nanosyn]

>  <BAO Format ID>  (718) 
BAO_0000357

>  <BAO Label>  (718) 
single protein format

>  <Assay Organism>  (718) 
None

>  <Target ChEMBL ID>  (718) 
CHEMBL4247

>  <Target Name>  (718) 
ALK tyrosine kinase receptor

>  <Target Organism>  (718) 
Homo sapiens

>  <Target Type>  (718) 
SINGLE PROTEIN

>  <Document ChEMBL ID>  (718) 
CHEMBL1961873

>  <Source Description>  (718) 
GSK Published Kinase Inhibitor Set

>  <Document Journal>  (718) 
nan

>  <Document Year>  (718) 
nan

>  <Active>  (718) 
0.0

>  <bits>  (718) 
<rdkit.DataStructs.cDataStructs.ExplicitBitVect object at 0x000002422F1E80B0>

>  <Group>  (718) 
G2

$$$$

     RDKit          2D

 21 23  0  0  0  0  0  0  0  0999 V2000
   -7.7227   -2.1088    0.0000 C   0  0  0  0  0  0  0  0  0  0  0  0
   -6.2961   -1.6453    0.0000 N   0  0  0  0  0  0  0  0  0  0  0  0
   -5.9843   -0.1781    0.0000 C   0  0  0  0  0  0  0  0  0  0  0  0
   -5.1814   -2.6490    0.0000 C   0  0  0  0  0  0  0  0  0  0  0  0
   -3.7548   -2.1855    0.0000 C   0  0  0  0  0  0  0  0  0  0  0  0
   -2.6401   -3.1891    0.0000 C   0  0  0  0  0  0  0  0  0  0  0  0
   -1.2135   -2.7256    0.0000 N   0  0  0  0  0  0  0  0  0  0  0  0
   -0.0000   -3.6073    0.0000 C   0  0  0  0  0  0  0  0  0  0  0  0
   -0.0000   -5.1073    0.0000 C   0  0  0  0  0  0  0  0  0  0  0  0
    1.2135   -5.9890    0.0000 N   0  0  0  0  0  0  0  0  0  0  0  0
    0.7500   -7.4156    0.0000 O   0  0  0  0  0  0  0  0  0  0  0  0
   -0.7500   -7.4156    0.0000 N   0  0  0  0  0  0  0  0  0  0  0  0
   -1.2135   -5.9890    0.0000 C   0  0  0  0  0  0  0  0  0  0  0  0
   -2.6401   -5.5255    0.0000 N   0  0  0  0  0  0  0  0  0  0  0  0
    1.2135   -2.7256    0.0000 N   0  0  0  0  0  0  0  0  0  0  0  0
    0.7500   -1.2990    0.0000 C   0  0  0  0  0  0  0  0  0  0  0  0
    1.5000    0.0000    0.0000 C   0  0  0  0  0  0  0  0  0  0  0  0
    0.7500    1.2990    0.0000 N   0  0  0  0  0  0  0  0  0  0  0  0
   -0.7500    1.2990    0.0000 C   0  0  0  0  0  0  0  0  0  0  0  0
   -1.5000    0.0000    0.0000 C   0  0  0  0  0  0  0  0  0  0  0  0
   -0.7500   -1.2990    0.0000 C   0  0  0  0  0  0  0  0  0  0  0  0
  1  2  1  0
  2  3  1  0
  2  4  1  0
  4  5  1  0
  5  6  1  0
  6  7  1  0
  7  8  1  0
  8  9  1  0
  9 10  2  0
 10 11  1  0
 11 12  1  0
 12 13  2  0
 13 14  1  0
  8 15  2  0
 15 16  1  0
 16 17  2  0
 17 18  1  0
 18 19  2  0
 19 20  1  0
 20 21  2  0
 21  7  1  0
 13  9  1  0
 21 16  1  0
M  END
>  <Compound_ID>  (719) 
CHEMBL191105

>  <Molecule Name>  (719) 
nan

>  <Molecular Weight>  (719) 
287.33

>  <AlogP>  (719) 
1.02

>  <Smiles>  (719) 
CN(C)CCCn1c(-c2nonc2N)nc2cnccc21

>  <Standard Type>  (719) 
Inhibition

>  <Standard Relation>  (719) 
'='

>  <Standard Units>  (719) 
%

>  <Standard Value>  (719) 
2.82

>  <Assay ChEMBL ID>  (719) 
CHEMBL1962240

>  <Assay Description>  (719) 
GSK_PKIS: ALK mean inhibition at 0.1 uM [Nanosyn]

>  <BAO Format ID>  (719) 
BAO_0000357

>  <BAO Label>  (719) 
single protein format

>  <Assay Organism>  (719) 
None

>  <Target ChEMBL ID>  (719) 
CHEMBL4247

>  <Target Name>  (719) 
ALK tyrosine kinase receptor

>  <Target Organism>  (719) 
Homo sapiens

>  <Target Type>  (719) 
SINGLE PROTEIN

>  <Document ChEMBL ID>  (719) 
CHEMBL1961873

>  <Source Description>  (719) 
GSK Published Kinase Inhibitor Set

>  <Document Journal>  (719) 
nan

>  <Document Year>  (719) 
nan

>  <Active>  (719) 
0.0

>  <bits>  (719) 
<rdkit.DataStructs.cDataStructs.ExplicitBitVect object at 0x000002422F1E8510>

>  <Group>  (719) 
G2

$$$$

     RDKit          2D

 29 32  0  0  0  0  0  0  0  0999 V2000
   -7.0526  -11.4523    0.0000 C   0  0  0  0  0  0  0  0  0  0  0  0
   -5.6260  -10.9888    0.0000 C   0  0  0  0  0  0  0  0  0  0  0  0
   -5.3142   -9.5216    0.0000 N   0  0  0  0  0  0  0  0  0  0  0  0
   -6.4289   -8.5179    0.0000 C   0  0  0  0  0  0  0  0  0  0  0  0
   -6.1170   -7.0506    0.0000 C   0  0  0  0  0  0  0  0  0  0  0  0
   -4.6904   -6.5871    0.0000 C   0  0  0  0  0  0  0  0  0  0  0  0
   -4.3786   -5.1199    0.0000 C   0  0  0  0  0  0  0  0  0  0  0  0
   -2.9520   -4.6564    0.0000 C   0  0  0  0  0  0  0  0  0  0  0  0
   -1.8373   -5.6601    0.0000 O   0  0  0  0  0  0  0  0  0  0  0  0
   -2.6401   -3.1891    0.0000 N   0  0  0  0  0  0  0  0  0  0  0  0
   -1.2135   -2.7256    0.0000 C   0  0  0  0  0  0  0  0  0  0  0  0
   -0.0000   -3.6073    0.0000 N   0  0  0  0  0  0  0  0  0  0  0  0
    1.2135   -2.7256    0.0000 N   0  0  0  0  0  0  0  0  0  0  0  0
    0.7500   -1.2990    0.0000 C   0  0  0  0  0  0  0  0  0  0  0  0
    1.5000    0.0000    0.0000 N   0  0  0  0  0  0  0  0  0  0  0  0
    0.7500    1.2990    0.0000 N   0  0  0  0  0  0  0  0  0  0  0  0
   -0.7500    1.2990    0.0000 C   0  0  0  0  0  0  0  0  0  0  0  0
   -1.5000    2.5981    0.0000 C   0  0  0  0  0  0  0  0  0  0  0  0
   -0.7500    3.8971    0.0000 C   0  0  0  0  0  0  0  0  0  0  0  0
   -1.5000    5.1962    0.0000 C   0  0  0  0  0  0  0  0  0  0  0  0
   -3.0000    5.1962    0.0000 C   0  0  0  0  0  0  0  0  0  0  0  0
   -3.7500    3.8971    0.0000 C   0  0  0  0  0  0  0  0  0  0  0  0
   -5.2500    3.8971    0.0000 F   0  0  0  0  0  0  0  0  0  0  0  0
   -3.0000    2.5981    0.0000 C   0  0  0  0  0  0  0  0  0  0  0  0
   -3.7500    1.2990    0.0000 F   0  0  0  0  0  0  0  0  0  0  0  0
   -1.5000    0.0000    0.0000 C   0  0  0  0  0  0  0  0  0  0  0  0
   -0.7500   -1.2990    0.0000 C   0  0  0  0  0  0  0  0  0  0  0  0
   -3.5757   -7.5908    0.0000 C   0  0  0  0  0  0  0  0  0  0  0  0
   -3.8876   -9.0580    0.0000 C   0  0  0  0  0  0  0  0  0  0  0  0
  1  2  1  0
  2  3  1  0
  3  4  1  0
  4  5  1  0
  5  6  1  0
  6  7  1  0
  7  8  1  0
  8  9  2  0
  8 10  1  0
 10 11  1  0
 11 12  2  0
 12 13  1  0
 13 14  1  0
 14 15  2  0
 15 16  1  0
 16 17  2  0
 17 18  1  0
 18 19  2  0
 19 20  1  0
 20 21  2  0
 21 22  1  0
 22 23  1  0
 22 24  2  0
 24 25  1  0
 17 26  1  0
 26 27  2  0
  6 28  1  0
 28 29  1  0
 29  3  1  0
 27 11  1  0
 27 14  1  0
 24 18  1  0
M  END
>  <Compound_ID>  (720) 
CHEMBL2062289

>  <Molecule Name>  (720) 
nan

>  <Molecular Weight>  (720) 
550.52

>  <AlogP>  (720) 
3.36

>  <Smiles>  (720) 
CCN1CCC(CC(=O)Nc2n[nH]c3nnc(-c4cccc(F)c4F)cc23)CC1

>  <Standard Type>  (720) 
Inhibition

>  <Standard Relation>  (720) 
'='

>  <Standard Units>  (720) 
%

>  <Standard Value>  (720) 
0.86

>  <Assay ChEMBL ID>  (720) 
CHEMBL1962241

>  <Assay Description>  (720) 
GSK_PKIS: ALK mean inhibition at 1 uM [Nanosyn]

>  <BAO Format ID>  (720) 
BAO_0000357

>  <BAO Label>  (720) 
single protein format

>  <Assay Organism>  (720) 
None

>  <Target ChEMBL ID>  (720) 
CHEMBL4247

>  <Target Name>  (720) 
ALK tyrosine kinase receptor

>  <Target Organism>  (720) 
Homo sapiens

>  <Target Type>  (720) 
SINGLE PROTEIN

>  <Document ChEMBL ID>  (720) 
CHEMBL1961873

>  <Source Description>  (720) 
GSK Published Kinase Inhibitor Set

>  <Document Journal>  (720) 
nan

>  <Document Year>  (720) 
nan

>  <Active>  (720) 
0.0

>  <bits>  (720) 
<rdkit.DataStructs.cDataStructs.ExplicitBitVect object at 0x000002422F1E8660>

>  <Group>  (720) 
G2

$$$$

     RDKit          2D

 45 49  0  0  0  0  0  0  0  0999 V2000
    3.0000    0.0000    0.0000 C   0  0  0  0  0  0  0  0  0  0  0  0
    1.5000    0.0000    0.0000 N   0  0  0  0  0  0  0  0  0  0  0  0
    0.7500   -1.2990    0.0000 C   0  0  0  0  0  0  0  0  0  0  0  0
   -0.7500   -1.2990    0.0000 C   0  0  0  0  0  0  0  0  0  0  0  0
   -1.5000    0.0000    0.0000 N   0  0  0  0  0  0  0  0  0  0  0  0
   -3.0000    0.0000    0.0000 C   0  0  0  0  0  0  0  0  0  0  0  0
   -3.7500   -1.2990    0.0000 O   0  0  0  0  0  0  0  0  0  0  0  0
   -3.7500    1.2990    0.0000 C   0  0  0  0  0  0  0  0  0  0  0  0
   -3.0000    2.5981    0.0000 C   0  0  0  0  0  0  0  0  0  0  0  0
   -3.7500    3.8971    0.0000 C   0  0  0  0  0  0  0  0  0  0  0  0
   -5.2500    3.8971    0.0000 C   0  0  0  0  0  0  0  0  0  0  0  0
   -6.0000    5.1962    0.0000 N   0  0  0  0  0  0  0  0  0  0  0  0
   -5.2500    6.4952    0.0000 C   0  0  0  0  0  0  0  0  0  0  0  0
   -3.7500    6.4952    0.0000 O   0  0  0  0  0  0  0  0  0  0  0  0
   -6.0000    7.7942    0.0000 N   0  0  0  0  0  0  0  0  0  0  0  0
   -5.2500    9.0933    0.0000 C   0  0  0  0  0  0  0  0  0  0  0  0
   -3.7500    9.0933    0.0000 C   0  0  0  0  0  0  0  0  0  0  0  0
   -3.0000   10.3923    0.0000 C   0  0  0  0  0  0  0  0  0  0  0  0
   -3.7500   11.6913    0.0000 C   0  0  0  0  0  0  0  0  0  0  0  0
   -3.0000   12.9904    0.0000 N   0  0  0  0  0  0  0  0  0  0  0  0
   -1.5000   12.9904    0.0000 C   0  0  0  0  0  0  0  0  0  0  0  0
   -3.7500   14.2894    0.0000 C   0  0  0  0  0  0  0  0  0  0  0  0
   -3.0000   15.5885    0.0000 C   0  0  0  0  0  0  0  0  0  0  0  0
   -3.7500   16.8875    0.0000 C   0  0  0  0  0  0  0  0  0  0  0  0
   -5.2500   16.8875    0.0000 N   0  0  0  0  0  0  0  0  0  0  0  0
   -6.0000   15.5885    0.0000 C   0  0  0  0  0  0  0  0  0  0  0  0
   -7.5000   15.5885    0.0000 N   0  0  0  0  0  0  0  0  0  0  0  0
   -8.2500   16.8875    0.0000 C   0  0  0  0  0  0  0  0  0  0  0  0
   -7.5000   18.1865    0.0000 C   0  0  0  0  0  0  0  0  0  0  0  0
   -8.2500   19.4856    0.0000 C   0  0  0  0  0  0  0  0  0  0  0  0
   -9.7500   19.4856    0.0000 C   0  0  0  0  0  0  0  0  0  0  0  0
  -10.5000   20.7846    0.0000 C   0  0  0  0  0  0  0  0  0  0  0  0
   -9.7500   22.0836    0.0000 S   0  0  0  0  0  0  0  0  0  0  0  0
   -9.0000   23.3827    0.0000 C   0  0  0  0  0  0  0  0  0  0  0  0
   -8.4510   21.3336    0.0000 O   0  0  0  0  0  0  0  0  0  0  0  0
  -11.0490   22.8336    0.0000 O   0  0  0  0  0  0  0  0  0  0  0  0
  -10.5000   18.1865    0.0000 C   0  0  0  0  0  0  0  0  0  0  0  0
   -9.7500   16.8875    0.0000 C   0  0  0  0  0  0  0  0  0  0  0  0
   -5.2500   14.2894    0.0000 N   0  0  0  0  0  0  0  0  0  0  0  0
   -5.2500   11.6913    0.0000 C   0  0  0  0  0  0  0  0  0  0  0  0
   -6.0000   10.3923    0.0000 C   0  0  0  0  0  0  0  0  0  0  0  0
   -6.0000    2.5981    0.0000 C   0  0  0  0  0  0  0  0  0  0  0  0
   -5.2500    1.2990    0.0000 C   0  0  0  0  0  0  0  0  0  0  0  0
   -0.7500    1.2990    0.0000 C   0  0  0  0  0  0  0  0  0  0  0  0
    0.7500    1.2990    0.0000 C   0  0  0  0  0  0  0  0  0  0  0  0
  1  2  1  0
  2  3  1  0
  3  4  1  0
  4  5  1  0
  5  6  1  0
  6  7  2  0
  6  8  1  0
  8  9  2  0
  9 10  1  0
 10 11  2  0
 11 12  1  0
 12 13  1  0
 13 14  2  0
 13 15  1  0
 15 16  1  0
 16 17  2  0
 17 18  1  0
 18 19  2  0
 19 20  1  0
 20 21  1  0
 20 22  1  0
 22 23  2  0
 23 24  1  0
 24 25  2  0
 25 26  1  0
 26 27  1  0
 27 28  1  0
 28 29  2  0
 29 30  1  0
 30 31  2  0
 31 32  1  0
 32 33  1  0
 33 34  1  0
 33 35  2  0
 33 36  2  0
 31 37  1  0
 37 38  2  0
 26 39  2  0
 19 40  1  0
 40 41  2  0
 11 42  1  0
 42 43  2  0
  5 44  1  0
 44 45  1  0
 45  2  1  0
 43  8  1  0
 41 16  1  0
 39 22  1  0
 38 28  1  0
M  END
>  <Compound_ID>  (721) 
CHEMBL1909360

>  <Molecule Name>  (721) 
GW830263A

>  <Molecular Weight>  (721) 
665.22

>  <AlogP>  (721) 
4.56

>  <Smiles>  (721) 
CN1CCN(C(=O)c2ccc(NC(=O)Nc3ccc(N(C)c4ccnc(Nc5ccc(CS(C)(=O)=O)cc5)n4)cc3)cc2)CC1

>  <Standard Type>  (721) 
Inhibition

>  <Standard Relation>  (721) 
'='

>  <Standard Units>  (721) 
%

>  <Standard Value>  (721) 
1.71

>  <Assay ChEMBL ID>  (721) 
CHEMBL1962240

>  <Assay Description>  (721) 
GSK_PKIS: ALK mean inhibition at 0.1 uM [Nanosyn]

>  <BAO Format ID>  (721) 
BAO_0000357

>  <BAO Label>  (721) 
single protein format

>  <Assay Organism>  (721) 
None

>  <Target ChEMBL ID>  (721) 
CHEMBL4247

>  <Target Name>  (721) 
ALK tyrosine kinase receptor

>  <Target Organism>  (721) 
Homo sapiens

>  <Target Type>  (721) 
SINGLE PROTEIN

>  <Document ChEMBL ID>  (721) 
CHEMBL1961873

>  <Source Description>  (721) 
GSK Published Kinase Inhibitor Set

>  <Document Journal>  (721) 
nan

>  <Document Year>  (721) 
nan

>  <Active>  (721) 
0.0

>  <bits>  (721) 
<rdkit.DataStructs.cDataStructs.ExplicitBitVect object at 0x000002422F1E8740>

>  <Group>  (721) 
G2

$$$$

     RDKit          2D

 36 39  0  0  0  0  0  0  0  0999 V2000
    3.0000    0.0000    0.0000 C   0  0  0  0  0  0  0  0  0  0  0  0
    1.5000    0.0000    0.0000 C   0  0  0  0  0  0  0  0  0  0  0  0
    0.7500   -1.2990    0.0000 C   0  0  0  0  0  0  0  0  0  0  0  0
   -0.7500   -1.2990    0.0000 C   0  0  0  0  0  0  0  0  0  0  0  0
   -1.5000    0.0000    0.0000 C   0  0  0  0  0  0  0  0  0  0  0  0
   -3.0000    0.0000    0.0000 N   0  0  0  0  0  0  0  0  0  0  0  0
   -3.7500    1.2990    0.0000 C   0  0  0  0  0  0  0  0  0  0  0  0
   -3.0000    2.5981    0.0000 O   0  0  0  0  0  0  0  0  0  0  0  0
   -5.2500    1.2990    0.0000 C   0  0  0  0  0  0  0  0  0  0  0  0
   -6.0000    2.5981    0.0000 C   0  0  0  0  0  0  0  0  0  0  0  0
   -7.5000    2.5981    0.0000 C   0  0  0  0  0  0  0  0  0  0  0  0
   -8.2500    3.8971    0.0000 N   0  0  0  0  0  0  0  0  0  0  0  0
   -7.5000    5.1962    0.0000 C   0  0  0  0  0  0  0  0  0  0  0  0
   -8.2500    6.4952    0.0000 C   0  0  0  0  0  0  0  0  0  0  0  0
   -9.7500    6.4952    0.0000 N   0  0  0  0  0  0  0  0  0  0  0  0
  -10.5000    7.7942    0.0000 C   0  0  0  0  0  0  0  0  0  0  0  0
  -10.5000    5.1962    0.0000 C   0  0  0  0  0  0  0  0  0  0  0  0
   -9.7500    3.8971    0.0000 C   0  0  0  0  0  0  0  0  0  0  0  0
   -8.2500    1.2990    0.0000 C   0  0  0  0  0  0  0  0  0  0  0  0
   -7.5000    0.0000    0.0000 C   0  0  0  0  0  0  0  0  0  0  0  0
   -8.2500   -1.2990    0.0000 C   0  0  0  0  0  0  0  0  0  0  0  0
   -9.0000   -2.5981    0.0000 F   0  0  0  0  0  0  0  0  0  0  0  0
   -9.5490   -0.5490    0.0000 F   0  0  0  0  0  0  0  0  0  0  0  0
   -6.9510   -2.0490    0.0000 F   0  0  0  0  0  0  0  0  0  0  0  0
   -6.0000    0.0000    0.0000 C   0  0  0  0  0  0  0  0  0  0  0  0
   -0.7500    1.2990    0.0000 C   0  0  0  0  0  0  0  0  0  0  0  0
    0.7500    1.2990    0.0000 C   0  0  0  0  0  0  0  0  0  0  0  0
    1.5000    2.5981    0.0000 N   0  0  0  0  0  0  0  0  0  0  0  0
    0.7500    3.8971    0.0000 C   0  0  0  0  0  0  0  0  0  0  0  0
   -0.7500    3.8971    0.0000 O   0  0  0  0  0  0  0  0  0  0  0  0
    1.5000    5.1962    0.0000 C   0  0  0  0  0  0  0  0  0  0  0  0
    0.8899    6.5665    0.0000 C   0  0  0  0  0  0  0  0  0  0  0  0
    2.0046    7.5702    0.0000 N   0  0  0  0  0  0  0  0  0  0  0  0
    3.3037    6.8202    0.0000 O   0  0  0  0  0  0  0  0  0  0  0  0
    2.9918    5.3529    0.0000 C   0  0  0  0  0  0  0  0  0  0  0  0
    3.9955    4.2382    0.0000 C   0  0  0  0  0  0  0  0  0  0  0  0
  1  2  1  0
  2  3  2  0
  3  4  1  0
  4  5  2  0
  5  6  1  0
  6  7  1  0
  7  8  2  0
  7  9  1  0
  9 10  2  0
 10 11  1  0
 11 12  1  0
 12 13  1  0
 13 14  1  0
 14 15  1  0
 15 16  1  0
 15 17  1  0
 17 18  1  0
 11 19  2  0
 19 20  1  0
 20 21  1  0
 21 22  1  0
 21 23  1  0
 21 24  1  0
 20 25  2  0
  5 26  1  0
 26 27  2  0
 27 28  1  0
 28 29  1  0
 29 30  2  0
 29 31  1  0
 31 32  1  0
 32 33  2  0
 33 34  1  0
 34 35  1  0
 35 36  1  0
 27  2  1  0
 35 31  2  0
 25  9  1  0
 18 12  1  0
M  END
>  <Compound_ID>  (722) 
CHEMBL3616960

>  <Molecule Name>  (722) 
nan

>  <Molecular Weight>  (722) 
501.51

>  <AlogP>  (722) 
4.57

>  <Smiles>  (722) 
Cc1ccc(NC(=O)c2cc(N3CCN(C)CC3)cc(C(F)(F)F)c2)cc1NC(=O)c1cnoc1C

>  <Standard Type>  (722) 
Inhibition

>  <Standard Relation>  (722) 
'='

>  <Standard Units>  (722) 
%

>  <Standard Value>  (722) 
0.0

>  <Assay ChEMBL ID>  (722) 
CHEMBL3619881

>  <Assay Description>  (722) 
Inhibition of ALK (unknown origin) at 10 uM after 40 mins by scintillation counting analysis

>  <BAO Format ID>  (722) 
BAO_0000357

>  <BAO Label>  (722) 
single protein format

>  <Assay Organism>  (722) 
Homo sapiens

>  <Target ChEMBL ID>  (722) 
CHEMBL4247

>  <Target Name>  (722) 
ALK tyrosine kinase receptor

>  <Target Organism>  (722) 
Homo sapiens

>  <Target Type>  (722) 
SINGLE PROTEIN

>  <Document ChEMBL ID>  (722) 
CHEMBL3616395

>  <Source Description>  (722) 
Scientific Literature

>  <Document Journal>  (722) 
Eur J Med Chem

>  <Document Year>  (722) 
2015.0

>  <Active>  (722) 
0.0

>  <bits>  (722) 
<rdkit.DataStructs.cDataStructs.ExplicitBitVect object at 0x000002422F1E8A50>

>  <Group>  (722) 
G2

$$$$

     RDKit          2D

 33 36  0  0  0  0  0  0  0  0999 V2000
   -3.7548   -2.1855    0.0000 C   0  0  0  0  0  0  0  0  0  0  0  0
   -2.6401   -3.1891    0.0000 C   0  0  0  0  0  0  0  0  0  0  0  0
   -1.2135   -2.7256    0.0000 N   0  0  0  0  0  0  0  0  0  0  0  0
   -0.0000   -3.6073    0.0000 C   0  0  0  0  0  0  0  0  0  0  0  0
   -0.0000   -5.1073    0.0000 C   0  0  0  0  0  0  0  0  0  0  0  0
    1.2135   -5.9890    0.0000 N   0  0  0  0  0  0  0  0  0  0  0  0
    0.7500   -7.4156    0.0000 O   0  0  0  0  0  0  0  0  0  0  0  0
   -0.7500   -7.4156    0.0000 N   0  0  0  0  0  0  0  0  0  0  0  0
   -1.2135   -5.9890    0.0000 C   0  0  0  0  0  0  0  0  0  0  0  0
   -2.6401   -5.5255    0.0000 N   0  0  0  0  0  0  0  0  0  0  0  0
    1.2135   -2.7256    0.0000 N   0  0  0  0  0  0  0  0  0  0  0  0
    0.7500   -1.2990    0.0000 C   0  0  0  0  0  0  0  0  0  0  0  0
    1.5000    0.0000    0.0000 C   0  0  0  0  0  0  0  0  0  0  0  0
    3.0000    0.0000    0.0000 C   0  0  0  0  0  0  0  0  0  0  0  0
    4.5000    0.0000    0.0000 C   0  0  0  0  0  0  0  0  0  0  0  0
    6.0000    0.0000    0.0000 C   0  0  0  0  0  0  0  0  0  0  0  0
    6.0000   -1.5000    0.0000 C   0  0  0  0  0  0  0  0  0  0  0  0
    6.0000    1.5000    0.0000 C   0  0  0  0  0  0  0  0  0  0  0  0
    7.5000    0.0000    0.0000 O   0  0  0  0  0  0  0  0  0  0  0  0
    0.7500    1.2990    0.0000 N   0  0  0  0  0  0  0  0  0  0  0  0
   -0.7500    1.2990    0.0000 C   0  0  0  0  0  0  0  0  0  0  0  0
   -1.5000    2.5981    0.0000 O   0  0  0  0  0  0  0  0  0  0  0  0
   -0.7500    3.8971    0.0000 C   0  0  0  0  0  0  0  0  0  0  0  0
   -1.5000    5.1962    0.0000 C   0  0  0  0  0  0  0  0  0  0  0  0
   -3.0000    5.1962    0.0000 N   0  0  0  0  0  0  0  0  0  0  0  0
   -0.7500    6.4952    0.0000 C   0  0  0  0  0  0  0  0  0  0  0  0
    0.7500    6.4952    0.0000 C   0  0  0  0  0  0  0  0  0  0  0  0
    1.5000    7.7942    0.0000 C   0  0  0  0  0  0  0  0  0  0  0  0
    0.7500    9.0933    0.0000 C   0  0  0  0  0  0  0  0  0  0  0  0
   -0.7500    9.0933    0.0000 C   0  0  0  0  0  0  0  0  0  0  0  0
   -1.5000    7.7942    0.0000 C   0  0  0  0  0  0  0  0  0  0  0  0
   -1.5000    0.0000    0.0000 C   0  0  0  0  0  0  0  0  0  0  0  0
   -0.7500   -1.2990    0.0000 C   0  0  0  0  0  0  0  0  0  0  0  0
  1  2  1  0
  2  3  1  0
  3  4  1  0
  4  5  1  0
  5  6  2  0
  6  7  1  0
  7  8  1  0
  8  9  2  0
  9 10  1  0
  4 11  2  0
 11 12  1  0
 12 13  2  0
 13 14  1  0
 14 15  3  0
 15 16  1  0
 16 17  1  0
 16 18  1  0
 16 19  1  0
 13 20  1  0
 20 21  2  0
 21 22  1  0
 22 23  1  0
 23 24  1  0
 24 25  1  6
 24 26  1  0
 26 27  2  0
 27 28  1  0
 28 29  2  0
 29 30  1  0
 30 31  2  0
 21 32  1  0
 32 33  2  0
 33  3  1  0
  9  5  1  0
 33 12  1  0
 31 26  1  0
M  END
>  <Compound_ID>  (723) 
CHEMBL1096634

>  <Molecule Name>  (723) 
GSK-943949A

>  <Molecular Weight>  (723) 
447.5

>  <AlogP>  (723) 
2.28

>  <Smiles>  (723) 
CCn1c(-c2nonc2N)nc2c(C#CC(C)(C)O)nc(OC[C@H](N)c3ccccc3)cc21

>  <Standard Type>  (723) 
Inhibition

>  <Standard Relation>  (723) 
'='

>  <Standard Units>  (723) 
%

>  <Standard Value>  (723) 
9.07

>  <Assay ChEMBL ID>  (723) 
CHEMBL1962241

>  <Assay Description>  (723) 
GSK_PKIS: ALK mean inhibition at 1 uM [Nanosyn]

>  <BAO Format ID>  (723) 
BAO_0000357

>  <BAO Label>  (723) 
single protein format

>  <Assay Organism>  (723) 
None

>  <Target ChEMBL ID>  (723) 
CHEMBL4247

>  <Target Name>  (723) 
ALK tyrosine kinase receptor

>  <Target Organism>  (723) 
Homo sapiens

>  <Target Type>  (723) 
SINGLE PROTEIN

>  <Document ChEMBL ID>  (723) 
CHEMBL1961873

>  <Source Description>  (723) 
GSK Published Kinase Inhibitor Set

>  <Document Journal>  (723) 
nan

>  <Document Year>  (723) 
nan

>  <Active>  (723) 
0.0

>  <bits>  (723) 
<rdkit.DataStructs.cDataStructs.ExplicitBitVect object at 0x000002422F1E9CB0>

>  <Group>  (723) 
G2

$$$$

     RDKit          2D

 30 33  0  0  0  0  0  0  0  0999 V2000
    1.8478   -6.4639    0.0000 C   0  0  0  0  0  0  0  0  0  0  0  0
    2.0046   -4.9721    0.0000 C   0  0  0  0  0  0  0  0  0  0  0  0
    3.3037   -4.2221    0.0000 N   0  0  0  0  0  0  0  0  0  0  0  0
    2.9918   -2.7549    0.0000 N   0  0  0  0  0  0  0  0  0  0  0  0
    1.5000   -2.5981    0.0000 C   0  0  0  0  0  0  0  0  0  0  0  0
    0.7500   -1.2990    0.0000 C   0  0  0  0  0  0  0  0  0  0  0  0
    1.5000    0.0000    0.0000 C   0  0  0  0  0  0  0  0  0  0  0  0
    0.7500    1.2990    0.0000 C   0  0  0  0  0  0  0  0  0  0  0  0
   -0.7500    1.2990    0.0000 C   0  0  0  0  0  0  0  0  0  0  0  0
   -1.5000    2.5981    0.0000 C   0  0  0  0  0  0  0  0  0  0  0  0
   -1.5000    0.0000    0.0000 C   0  0  0  0  0  0  0  0  0  0  0  0
   -3.0000    0.0000    0.0000 C   0  0  0  0  0  0  0  0  0  0  0  0
   -3.7500    1.2990    0.0000 C   0  0  0  0  0  0  0  0  0  0  0  0
   -5.2500    1.2990    0.0000 C   0  0  0  0  0  0  0  0  0  0  0  0
   -6.0000    0.0000    0.0000 C   0  0  0  0  0  0  0  0  0  0  0  0
   -7.5000    0.0000    0.0000 C   0  0  0  0  0  0  0  0  0  0  0  0
   -8.2500   -1.2990    0.0000 O   0  0  0  0  0  0  0  0  0  0  0  0
   -8.2500    1.2990    0.0000 N   0  0  0  0  0  0  0  0  0  0  0  0
   -9.7500    1.2990    0.0000 C   0  0  0  0  0  0  0  0  0  0  0  0
  -10.5000    2.5981    0.0000 C   0  0  0  0  0  0  0  0  0  0  0  0
   -9.7500    3.8971    0.0000 C   0  0  0  0  0  0  0  0  0  0  0  0
  -10.5000    5.1962    0.0000 C   0  0  0  0  0  0  0  0  0  0  0  0
  -12.0000    5.1962    0.0000 C   0  0  0  0  0  0  0  0  0  0  0  0
  -12.7500    6.4952    0.0000 Cl  0  0  0  0  0  0  0  0  0  0  0  0
  -12.7500    3.8971    0.0000 C   0  0  0  0  0  0  0  0  0  0  0  0
  -12.0000    2.5981    0.0000 C   0  0  0  0  0  0  0  0  0  0  0  0
   -5.2500   -1.2990    0.0000 C   0  0  0  0  0  0  0  0  0  0  0  0
   -3.7500   -1.2990    0.0000 C   0  0  0  0  0  0  0  0  0  0  0  0
   -0.7500   -1.2990    0.0000 C   0  0  0  0  0  0  0  0  0  0  0  0
    0.8899   -3.9684    0.0000 O   0  0  0  0  0  0  0  0  0  0  0  0
  1  2  1  0
  2  3  2  0
  3  4  1  0
  4  5  2  0
  5  6  1  0
  6  7  2  0
  7  8  1  0
  8  9  2  0
  9 10  1  0
  9 11  1  0
 11 12  1  0
 12 13  2  0
 13 14  1  0
 14 15  2  0
 15 16  1  0
 16 17  2  0
 16 18  1  0
 18 19  1  0
 19 20  1  0
 20 21  2  0
 21 22  1  0
 22 23  2  0
 23 24  1  0
 23 25  1  0
 25 26  2  0
 15 27  1  0
 27 28  2  0
 11 29  2  0
  5 30  1  0
 30  2  1  0
 29  6  1  0
 28 12  1  0
 26 20  1  0
M  END
>  <Compound_ID>  (724) 
CHEMBL402108

>  <Molecule Name>  (724) 
GW708893X

>  <Molecular Weight>  (724) 
417.9

>  <AlogP>  (724) 
5.6

>  <Smiles>  (724) 
Cc1nnc(-c2ccc(C)c(-c3ccc(C(=O)NCc4ccc(Cl)cc4)cc3)c2)o1

>  <Standard Type>  (724) 
Inhibition

>  <Standard Relation>  (724) 
'='

>  <Standard Units>  (724) 
%

>  <Standard Value>  (724) 
0.41

>  <Assay ChEMBL ID>  (724) 
CHEMBL1962241

>  <Assay Description>  (724) 
GSK_PKIS: ALK mean inhibition at 1 uM [Nanosyn]

>  <BAO Format ID>  (724) 
BAO_0000357

>  <BAO Label>  (724) 
single protein format

>  <Assay Organism>  (724) 
None

>  <Target ChEMBL ID>  (724) 
CHEMBL4247

>  <Target Name>  (724) 
ALK tyrosine kinase receptor

>  <Target Organism>  (724) 
Homo sapiens

>  <Target Type>  (724) 
SINGLE PROTEIN

>  <Document ChEMBL ID>  (724) 
CHEMBL1961873

>  <Source Description>  (724) 
GSK Published Kinase Inhibitor Set

>  <Document Journal>  (724) 
nan

>  <Document Year>  (724) 
nan

>  <Active>  (724) 
0.0

>  <bits>  (724) 
<rdkit.DataStructs.cDataStructs.ExplicitBitVect object at 0x000002422F1EA3B0>

>  <Group>  (724) 
G2

$$$$

     RDKit          2D

 22 24  0  0  0  0  0  0  0  0999 V2000
    1.8478   -6.4639    0.0000 O   0  0  0  0  0  0  0  0  0  0  0  0
    2.0046   -4.9721    0.0000 C   0  0  0  0  0  0  0  0  0  0  0  0
    3.3037   -4.2221    0.0000 N   0  0  0  0  0  0  0  0  0  0  0  0
    2.9918   -2.7549    0.0000 C   0  0  0  0  0  0  0  0  0  0  0  0
    3.9955   -1.6402    0.0000 O   0  0  0  0  0  0  0  0  0  0  0  0
    1.5000   -2.5981    0.0000 C   0  0  0  0  0  0  0  0  0  0  0  0
    0.7500   -1.2990    0.0000 C   0  0  0  0  0  0  0  0  0  0  0  0
    1.5000    0.0000    0.0000 C   0  0  0  0  0  0  0  0  0  0  0  0
    0.7500    1.2990    0.0000 C   0  0  0  0  0  0  0  0  0  0  0  0
   -0.7500    1.2990    0.0000 C   0  0  0  0  0  0  0  0  0  0  0  0
   -1.5000    0.0000    0.0000 C   0  0  0  0  0  0  0  0  0  0  0  0
   -0.7500   -1.2990    0.0000 C   0  0  0  0  0  0  0  0  0  0  0  0
   -1.5000   -2.5981    0.0000 Cl  0  0  0  0  0  0  0  0  0  0  0  0
    0.8899   -3.9684    0.0000 C   0  0  0  0  0  0  0  0  0  0  0  0
   -0.5773   -4.2803    0.0000 N   0  0  0  0  0  0  0  0  0  0  0  0
   -1.0409   -5.7068    0.0000 C   0  0  0  0  0  0  0  0  0  0  0  0
   -2.5081   -6.0187    0.0000 C   0  0  0  0  0  0  0  0  0  0  0  0
   -2.9716   -7.4453    0.0000 C   0  0  0  0  0  0  0  0  0  0  0  0
   -1.9679   -8.5600    0.0000 C   0  0  0  0  0  0  0  0  0  0  0  0
   -0.5007   -8.2481    0.0000 C   0  0  0  0  0  0  0  0  0  0  0  0
    0.5030   -9.3629    0.0000 O   0  0  0  0  0  0  0  0  0  0  0  0
   -0.0372   -6.8216    0.0000 C   0  0  0  0  0  0  0  0  0  0  0  0
  1  2  2  0
  2  3  1  0
  3  4  1  0
  4  5  2  0
  4  6  1  0
  6  7  1  0
  7  8  2  0
  8  9  1  0
  9 10  2  0
 10 11  1  0
 11 12  2  0
 12 13  1  0
  6 14  2  0
 14 15  1  0
 15 16  1  0
 16 17  2  0
 17 18  1  0
 18 19  2  0
 19 20  1  0
 20 21  1  0
 20 22  2  0
 14  2  1  0
 22 16  1  0
 12  7  1  0
M  END
>  <Compound_ID>  (725) 
CHEMBL160937

>  <Molecule Name>  (725) 
nan

>  <Molecular Weight>  (725) 
314.73

>  <AlogP>  (725) 
2.53

>  <Smiles>  (725) 
O=C1NC(=O)C(c2ccccc2Cl)=C1Nc1cccc(O)c1

>  <Standard Type>  (725) 
Inhibition

>  <Standard Relation>  (725) 
'='

>  <Standard Units>  (725) 
%

>  <Standard Value>  (725) 
4.74

>  <Assay ChEMBL ID>  (725) 
CHEMBL1962241

>  <Assay Description>  (725) 
GSK_PKIS: ALK mean inhibition at 1 uM [Nanosyn]

>  <BAO Format ID>  (725) 
BAO_0000357

>  <BAO Label>  (725) 
single protein format

>  <Assay Organism>  (725) 
None

>  <Target ChEMBL ID>  (725) 
CHEMBL4247

>  <Target Name>  (725) 
ALK tyrosine kinase receptor

>  <Target Organism>  (725) 
Homo sapiens

>  <Target Type>  (725) 
SINGLE PROTEIN

>  <Document ChEMBL ID>  (725) 
CHEMBL1961873

>  <Source Description>  (725) 
GSK Published Kinase Inhibitor Set

>  <Document Journal>  (725) 
nan

>  <Document Year>  (725) 
nan

>  <Active>  (725) 
0.0

>  <bits>  (725) 
<rdkit.DataStructs.cDataStructs.ExplicitBitVect object at 0x000002422F1E97E0>

>  <Group>  (725) 
G2

$$$$

     RDKit          2D

 27 30  0  0  0  0  0  0  0  0999 V2000
    3.0000    0.0000    0.0000 C   0  0  0  0  0  0  0  0  0  0  0  0
    1.5000    0.0000    0.0000 C   0  0  0  0  0  0  0  0  0  0  0  0
    0.7500   -1.2990    0.0000 C   0  0  0  0  0  0  0  0  0  0  0  0
   -0.7500   -1.2990    0.0000 C   0  0  0  0  0  0  0  0  0  0  0  0
   -1.5000   -2.5981    0.0000 C   0  0  0  0  0  0  0  0  0  0  0  0
   -3.0000   -2.5981    0.0000 C   0  0  0  0  0  0  0  0  0  0  0  0
   -3.7500   -3.8971    0.0000 C   0  0  0  0  0  0  0  0  0  0  0  0
   -3.0000   -5.1962    0.0000 C   0  0  0  0  0  0  0  0  0  0  0  0
   -1.5000   -5.1962    0.0000 C   0  0  0  0  0  0  0  0  0  0  0  0
   -0.7500   -3.8971    0.0000 N   0  0  0  0  0  0  0  0  0  0  0  0
   -1.5000    0.0000    0.0000 C   0  0  0  0  0  0  0  0  0  0  0  0
   -0.7500    1.2990    0.0000 C   0  0  0  0  0  0  0  0  0  0  0  0
   -1.5000    2.5981    0.0000 C   0  0  0  0  0  0  0  0  0  0  0  0
    0.7500    1.2990    0.0000 C   0  0  0  0  0  0  0  0  0  0  0  0
    1.5000    2.5981    0.0000 C   0  0  0  0  0  0  0  0  0  0  0  0
    3.0000    2.5981    0.0000 C   0  0  0  0  0  0  0  0  0  0  0  0
    3.7500    3.8971    0.0000 C   0  0  0  0  0  0  0  0  0  0  0  0
    5.2500    3.8971    0.0000 C   0  0  0  0  0  0  0  0  0  0  0  0
    6.0000    5.1962    0.0000 N   0  0  0  0  0  0  0  0  0  0  0  0
    5.2500    6.4952    0.0000 C   0  0  0  0  0  0  0  0  0  0  0  0
    3.7500    6.4952    0.0000 C   0  0  0  0  0  0  0  0  0  0  0  0
    3.0000    7.7942    0.0000 C   0  0  0  0  0  0  0  0  0  0  0  0
    1.5082    7.9510    0.0000 N   0  0  0  0  0  0  0  0  0  0  0  0
    1.1963    9.4182    0.0000 N   0  0  0  0  0  0  0  0  0  0  0  0
    2.4954   10.1682    0.0000 N   0  0  0  0  0  0  0  0  0  0  0  0
    3.6101    9.1645    0.0000 N   0  0  0  0  0  0  0  0  0  0  0  0
    3.0000    5.1962    0.0000 C   0  0  0  0  0  0  0  0  0  0  0  0
  1  2  1  0
  2  3  2  0
  3  4  1  0
  4  5  1  0
  5  6  2  0
  6  7  1  0
  7  8  2  0
  8  9  1  0
  9 10  2  0
  4 11  2  0
 11 12  1  0
 12 13  1  0
 12 14  2  0
 14 15  1  0
 15 16  2  0
 16 17  1  0
 17 18  2  0
 18 19  1  0
 19 20  2  0
 20 21  1  0
 21 22  1  0
 22 23  1  0
 23 24  2  0
 24 25  1  0
 25 26  1  0
 21 27  2  0
 14  2  1  0
 27 17  1  0
 10  5  1  0
 26 22  2  0
M  END
>  <Compound_ID>  (726) 
CHEMBL1909354

>  <Molecule Name>  (726) 
GW459057A

>  <Molecular Weight>  (726) 
390.88

>  <AlogP>  (726) 
4.11

>  <Smiles>  (726) 
Cc1cc(-c2ccccn2)cc(C)c1/C=C/c1cncc(-c2nn[nH]n2)c1

>  <Standard Type>  (726) 
Inhibition

>  <Standard Relation>  (726) 
'='

>  <Standard Units>  (726) 
%

>  <Standard Value>  (726) 
3.44

>  <Assay ChEMBL ID>  (726) 
CHEMBL1962240

>  <Assay Description>  (726) 
GSK_PKIS: ALK mean inhibition at 0.1 uM [Nanosyn]

>  <BAO Format ID>  (726) 
BAO_0000357

>  <BAO Label>  (726) 
single protein format

>  <Assay Organism>  (726) 
None

>  <Target ChEMBL ID>  (726) 
CHEMBL4247

>  <Target Name>  (726) 
ALK tyrosine kinase receptor

>  <Target Organism>  (726) 
Homo sapiens

>  <Target Type>  (726) 
SINGLE PROTEIN

>  <Document ChEMBL ID>  (726) 
CHEMBL1961873

>  <Source Description>  (726) 
GSK Published Kinase Inhibitor Set

>  <Document Journal>  (726) 
nan

>  <Document Year>  (726) 
nan

>  <Active>  (726) 
0.0

>  <bits>  (726) 
<rdkit.DataStructs.cDataStructs.ExplicitBitVect object at 0x000002422F1E8890>

>  <Group>  (726) 
G2

$$$$

     RDKit          2D

 26 29  0  0  0  0  0  0  0  0999 V2000
    3.7500   -1.2990    0.0000 C   0  0  0  0  0  0  0  0  0  0  0  0
    3.0000    0.0000    0.0000 C   0  0  0  0  0  0  0  0  0  0  0  0
    3.7500    1.2990    0.0000 C   0  0  0  0  0  0  0  0  0  0  0  0
    1.5000    0.0000    0.0000 C   0  0  0  0  0  0  0  0  0  0  0  0
    0.7500   -1.2990    0.0000 C   0  0  0  0  0  0  0  0  0  0  0  0
   -0.7500   -1.2990    0.0000 C   0  0  0  0  0  0  0  0  0  0  0  0
   -1.5000    0.0000    0.0000 C   0  0  0  0  0  0  0  0  0  0  0  0
   -3.0000    0.0000    0.0000 C   0  0  0  0  0  0  0  0  0  0  0  0
   -3.7500    1.2990    0.0000 C   0  0  0  0  0  0  0  0  0  0  0  0
   -5.2500    1.2990    0.0000 C   0  0  0  0  0  0  0  0  0  0  0  0
   -6.0000    2.5981    0.0000 C   0  0  0  0  0  0  0  0  0  0  0  0
   -7.4918    2.7549    0.0000 C   0  0  0  0  0  0  0  0  0  0  0  0
   -7.8037    4.2221    0.0000 N   0  0  0  0  0  0  0  0  0  0  0  0
   -6.5046    4.9721    0.0000 N   0  0  0  0  0  0  0  0  0  0  0  0
   -5.3899    3.9684    0.0000 C   0  0  0  0  0  0  0  0  0  0  0  0
   -3.9227    4.2803    0.0000 C   0  0  0  0  0  0  0  0  0  0  0  0
   -2.9190    3.1655    0.0000 C   0  0  0  0  0  0  0  0  0  0  0  0
   -1.4518    3.4774    0.0000 C   0  0  0  0  0  0  0  0  0  0  0  0
   -0.9882    4.9040    0.0000 C   0  0  0  0  0  0  0  0  0  0  0  0
   -1.9919    6.0187    0.0000 C   0  0  0  0  0  0  0  0  0  0  0  0
   -3.4591    5.7068    0.0000 N   0  0  0  0  0  0  0  0  0  0  0  0
   -6.0000    0.0000    0.0000 C   0  0  0  0  0  0  0  0  0  0  0  0
   -5.2500   -1.2990    0.0000 C   0  0  0  0  0  0  0  0  0  0  0  0
   -3.7500   -1.2990    0.0000 N   0  0  0  0  0  0  0  0  0  0  0  0
   -0.7500    1.2990    0.0000 C   0  0  0  0  0  0  0  0  0  0  0  0
    0.7500    1.2990    0.0000 C   0  0  0  0  0  0  0  0  0  0  0  0
  1  2  1  0
  2  3  1  0
  2  4  1  0
  4  5  2  0
  5  6  1  0
  6  7  2  0
  7  8  1  0
  8  9  2  0
  9 10  1  0
 10 11  1  0
 11 12  2  0
 12 13  1  0
 13 14  1  0
 14 15  2  0
 15 16  1  0
 16 17  2  0
 17 18  1  0
 18 19  2  0
 19 20  1  0
 20 21  2  0
 10 22  2  0
 22 23  1  0
 23 24  2  0
  7 25  1  0
 25 26  2  0
 26  4  1  0
 24  8  1  0
 15 11  1  0
 21 16  1  0
M  END
>  <Compound_ID>  (727) 
CHEMBL206544

>  <Molecule Name>  (727) 
GW682841X

>  <Molecular Weight>  (727) 
340.43

>  <AlogP>  (727) 
5.32

>  <Smiles>  (727) 
CC(C)c1ccc(-c2cc(-c3c[nH]nc3-c3ccccn3)ccn2)cc1

>  <Standard Type>  (727) 
Inhibition

>  <Standard Relation>  (727) 
'='

>  <Standard Units>  (727) 
%

>  <Standard Value>  (727) 
1.28

>  <Assay ChEMBL ID>  (727) 
CHEMBL1962240

>  <Assay Description>  (727) 
GSK_PKIS: ALK mean inhibition at 0.1 uM [Nanosyn]

>  <BAO Format ID>  (727) 
BAO_0000357

>  <BAO Label>  (727) 
single protein format

>  <Assay Organism>  (727) 
None

>  <Target ChEMBL ID>  (727) 
CHEMBL4247

>  <Target Name>  (727) 
ALK tyrosine kinase receptor

>  <Target Organism>  (727) 
Homo sapiens

>  <Target Type>  (727) 
SINGLE PROTEIN

>  <Document ChEMBL ID>  (727) 
CHEMBL1961873

>  <Source Description>  (727) 
GSK Published Kinase Inhibitor Set

>  <Document Journal>  (727) 
nan

>  <Document Year>  (727) 
nan

>  <Active>  (727) 
0.0

>  <bits>  (727) 
<rdkit.DataStructs.cDataStructs.ExplicitBitVect object at 0x000002422F1E9D20>

>  <Group>  (727) 
G2

$$$$

     RDKit          2D

 29 32  0  0  0  0  0  0  0  0999 V2000
    3.0000    0.0000    0.0000 C   0  0  0  0  0  0  0  0  0  0  0  0
    1.5000    0.0000    0.0000 N   0  0  0  0  0  0  0  0  0  0  0  0
    0.7500   -1.2990    0.0000 C   0  0  0  0  0  0  0  0  0  0  0  0
   -0.7500   -1.2990    0.0000 C   0  0  0  0  0  0  0  0  0  0  0  0
   -1.5000    0.0000    0.0000 N   0  0  0  0  0  0  0  0  0  0  0  0
   -3.0000    0.0000    0.0000 C   0  0  0  0  0  0  0  0  0  0  0  0
   -3.7500    1.2990    0.0000 C   0  0  0  0  0  0  0  0  0  0  0  0
   -5.2500    1.2990    0.0000 C   0  0  0  0  0  0  0  0  0  0  0  0
   -6.0000    0.0000    0.0000 C   0  0  0  0  0  0  0  0  0  0  0  0
   -7.5000    0.0000    0.0000 N   0  0  0  0  0  0  0  0  0  0  0  0
   -8.2500    1.2990    0.0000 C   0  0  0  0  0  0  0  0  0  0  0  0
   -7.5000    2.5981    0.0000 O   0  0  0  0  0  0  0  0  0  0  0  0
   -9.7500    1.2990    0.0000 C   0  0  0  0  0  0  0  0  0  0  0  0
  -10.6317    0.0855    0.0000 C   0  0  0  0  0  0  0  0  0  0  0  0
  -12.0583    0.5490    0.0000 C   0  0  0  0  0  0  0  0  0  0  0  0
  -12.0583    2.0490    0.0000 C   0  0  0  0  0  0  0  0  0  0  0  0
  -13.2718    2.9307    0.0000 C   0  0  0  0  0  0  0  0  0  0  0  0
  -13.1150    4.4225    0.0000 C   0  0  0  0  0  0  0  0  0  0  0  0
  -14.3285    5.3042    0.0000 C   0  0  0  0  0  0  0  0  0  0  0  0
  -14.1717    6.7960    0.0000 Cl  0  0  0  0  0  0  0  0  0  0  0  0
  -15.6988    4.6941    0.0000 C   0  0  0  0  0  0  0  0  0  0  0  0
  -15.8556    3.2023    0.0000 C   0  0  0  0  0  0  0  0  0  0  0  0
  -14.6421    2.3206    0.0000 C   0  0  0  0  0  0  0  0  0  0  0  0
  -14.7989    0.8288    0.0000 Cl  0  0  0  0  0  0  0  0  0  0  0  0
  -10.6317    2.5126    0.0000 O   0  0  0  0  0  0  0  0  0  0  0  0
   -5.2500   -1.2990    0.0000 C   0  0  0  0  0  0  0  0  0  0  0  0
   -3.7500   -1.2990    0.0000 C   0  0  0  0  0  0  0  0  0  0  0  0
   -0.7500    1.2990    0.0000 C   0  0  0  0  0  0  0  0  0  0  0  0
    0.7500    1.2990    0.0000 C   0  0  0  0  0  0  0  0  0  0  0  0
  1  2  1  0
  2  3  1  0
  3  4  1  0
  4  5  1  0
  5  6  1  0
  6  7  2  0
  7  8  1  0
  8  9  2  0
  9 10  1  0
 10 11  1  0
 11 12  2  0
 11 13  1  0
 13 14  2  0
 14 15  1  0
 15 16  2  0
 16 17  1  0
 17 18  2  0
 18 19  1  0
 19 20  1  0
 19 21  2  0
 21 22  1  0
 22 23  2  0
 23 24  1  0
 16 25  1  0
  9 26  1  0
 26 27  2  0
  5 28  1  0
 28 29  1  0
 29  2  1  0
 27  6  1  0
 25 13  1  0
 23 17  1  0
M  END
>  <Compound_ID>  (728) 
CHEMBL3754324

>  <Molecule Name>  (728) 
nan

>  <Molecular Weight>  (728) 
430.33

>  <AlogP>  (728) 
5.26

>  <Smiles>  (728) 
CN1CCN(c2ccc(NC(=O)c3ccc(-c4cc(Cl)ccc4Cl)o3)cc2)CC1

>  <Standard Type>  (728) 
Inhibition

>  <Standard Relation>  (728) 
'='

>  <Standard Units>  (728) 
%

>  <Standard Value>  (728) 
17.4

>  <Assay ChEMBL ID>  (728) 
CHEMBL3756750

>  <Assay Description>  (728) 
Inhibition of human ALK using IGF-1Rtide as substrate at 10 uM after 2 hrs in presence of 30 uM ATP

>  <BAO Format ID>  (728) 
BAO_0000357

>  <BAO Label>  (728) 
single protein format

>  <Assay Organism>  (728) 
Homo sapiens

>  <Target ChEMBL ID>  (728) 
CHEMBL4247

>  <Target Name>  (728) 
ALK tyrosine kinase receptor

>  <Target Organism>  (728) 
Homo sapiens

>  <Target Type>  (728) 
SINGLE PROTEIN

>  <Document ChEMBL ID>  (728) 
CHEMBL3751797

>  <Source Description>  (728) 
Scientific Literature

>  <Document Journal>  (728) 
Medchemcomm

>  <Document Year>  (728) 
2015.0

>  <Active>  (728) 
0.0

>  <bits>  (728) 
<rdkit.DataStructs.cDataStructs.ExplicitBitVect object at 0x000002422F1EA960>

>  <Group>  (728) 
G2

$$$$

     RDKit          2D

 34 38  0  0  0  0  0  0  0  0999 V2000
   -1.6768  -15.1430    0.0000 C   0  0  0  0  0  0  0  0  0  0  0  0
   -1.5200  -13.6512    0.0000 N   0  0  0  0  0  0  0  0  0  0  0  0
   -2.7335  -12.7695    0.0000 C   0  0  0  0  0  0  0  0  0  0  0  0
   -0.1497  -13.0411    0.0000 C   0  0  0  0  0  0  0  0  0  0  0  0
    0.0071  -11.5493    0.0000 C   0  0  0  0  0  0  0  0  0  0  0  0
    1.3774  -10.9392    0.0000 O   0  0  0  0  0  0  0  0  0  0  0  0
    1.5342   -9.4474    0.0000 C   0  0  0  0  0  0  0  0  0  0  0  0
    0.3207   -8.5658    0.0000 C   0  0  0  0  0  0  0  0  0  0  0  0
    0.4775   -7.0740    0.0000 C   0  0  0  0  0  0  0  0  0  0  0  0
    1.8478   -6.4639    0.0000 C   0  0  0  0  0  0  0  0  0  0  0  0
    2.0046   -4.9721    0.0000 C   0  0  0  0  0  0  0  0  0  0  0  0
    0.8899   -3.9684    0.0000 C   0  0  0  0  0  0  0  0  0  0  0  0
    1.5000   -2.5981    0.0000 C   0  0  0  0  0  0  0  0  0  0  0  0
    0.7500   -1.2990    0.0000 C   0  0  0  0  0  0  0  0  0  0  0  0
    1.5000    0.0000    0.0000 C   0  0  0  0  0  0  0  0  0  0  0  0
    0.7500    1.2990    0.0000 C   0  0  0  0  0  0  0  0  0  0  0  0
   -0.7500    1.2990    0.0000 C   0  0  0  0  0  0  0  0  0  0  0  0
   -1.5000    0.0000    0.0000 C   0  0  0  0  0  0  0  0  0  0  0  0
   -0.7500   -1.2990    0.0000 C   0  0  0  0  0  0  0  0  0  0  0  0
   -2.9672    0.3119    0.0000 C   0  0  0  0  0  0  0  0  0  0  0  0
   -3.1240    1.8037    0.0000 C   0  0  0  0  0  0  0  0  0  0  0  0
   -1.7537    2.4138    0.0000 C   0  0  0  0  0  0  0  0  0  0  0  0
   -1.4418    3.8810    0.0000 N   0  0  0  0  0  0  0  0  0  0  0  0
   -2.5565    4.8847    0.0000 O   0  0  0  0  0  0  0  0  0  0  0  0
    2.9918   -2.7549    0.0000 C   0  0  0  0  0  0  0  0  0  0  0  0
    3.9955   -1.6402    0.0000 C   0  0  0  0  0  0  0  0  0  0  0  0
    5.4627   -1.9520    0.0000 C   0  0  0  0  0  0  0  0  0  0  0  0
    6.4664   -0.8373    0.0000 C   0  0  0  0  0  0  0  0  0  0  0  0
    6.0029    0.5893    0.0000 N   0  0  0  0  0  0  0  0  0  0  0  0
    4.5356    0.9012    0.0000 C   0  0  0  0  0  0  0  0  0  0  0  0
    3.5320   -0.2136    0.0000 C   0  0  0  0  0  0  0  0  0  0  0  0
    3.3037   -4.2221    0.0000 O   0  0  0  0  0  0  0  0  0  0  0  0
    3.0613   -7.3456    0.0000 C   0  0  0  0  0  0  0  0  0  0  0  0
    2.9046   -8.8373    0.0000 C   0  0  0  0  0  0  0  0  0  0  0  0
  1  2  1  0
  2  3  1  0
  2  4  1  0
  4  5  1  0
  5  6  1  0
  6  7  1  0
  7  8  2  0
  8  9  1  0
  9 10  2  0
 10 11  1  0
 11 12  2  0
 12 13  1  0
 13 14  1  0
 14 15  2  0
 15 16  1  0
 16 17  2  0
 17 18  1  0
 18 19  2  0
 18 20  1  0
 20 21  1  0
 21 22  1  0
 22 23  2  3
 23 24  1  0
 13 25  2  0
 25 26  1  0
 26 27  2  0
 27 28  1  0
 28 29  2  0
 29 30  1  0
 30 31  2  0
 25 32  1  0
 10 33  1  0
 33 34  2  0
 34  7  1  0
 32 11  1  0
 19 14  1  0
 31 26  1  0
 22 17  1  0
M  END
>  <Compound_ID>  (729) 
CHEMBL1794072

>  <Molecule Name>  (729) 
nan

>  <Molecular Weight>  (729) 
490.0

>  <AlogP>  (729) 
5.74

>  <Smiles>  (729) 
CN(C)CCOc1ccc(-c2cc(-c3ccc4c(c3)CCC4=NO)c(-c3ccncc3)o2)cc1

>  <Standard Type>  (729) 
Inhibition

>  <Standard Relation>  (729) 
'='

>  <Standard Units>  (729) 
%

>  <Standard Value>  (729) 
-1.95

>  <Assay ChEMBL ID>  (729) 
CHEMBL1962240

>  <Assay Description>  (729) 
GSK_PKIS: ALK mean inhibition at 0.1 uM [Nanosyn]

>  <BAO Format ID>  (729) 
BAO_0000357

>  <BAO Label>  (729) 
single protein format

>  <Assay Organism>  (729) 
None

>  <Target ChEMBL ID>  (729) 
CHEMBL4247

>  <Target Name>  (729) 
ALK tyrosine kinase receptor

>  <Target Organism>  (729) 
Homo sapiens

>  <Target Type>  (729) 
SINGLE PROTEIN

>  <Document ChEMBL ID>  (729) 
CHEMBL1961873

>  <Source Description>  (729) 
GSK Published Kinase Inhibitor Set

>  <Document Journal>  (729) 
nan

>  <Document Year>  (729) 
nan

>  <Active>  (729) 
0.0

>  <bits>  (729) 
<rdkit.DataStructs.cDataStructs.ExplicitBitVect object at 0x000002422F1EAFF0>

>  <Group>  (729) 
G2

$$$$

     RDKit          2D

 26 29  0  0  0  0  0  0  0  0999 V2000
   -9.1645    1.7722    0.0000 C   0  0  0  0  0  0  0  0  0  0  0  0
   -8.0498    0.7685    0.0000 O   0  0  0  0  0  0  0  0  0  0  0  0
   -6.6232    1.2320    0.0000 C   0  0  0  0  0  0  0  0  0  0  0  0
   -6.3114    2.6992    0.0000 C   0  0  0  0  0  0  0  0  0  0  0  0
   -4.8848    3.1627    0.0000 C   0  0  0  0  0  0  0  0  0  0  0  0
   -3.7701    2.1590    0.0000 C   0  0  0  0  0  0  0  0  0  0  0  0
   -4.0819    0.6918    0.0000 C   0  0  0  0  0  0  0  0  0  0  0  0
   -2.9672   -0.3119    0.0000 C   0  0  0  0  0  0  0  0  0  0  0  0
   -3.1240   -1.8037    0.0000 C   0  0  0  0  0  0  0  0  0  0  0  0
   -1.7537   -2.4138    0.0000 N   0  0  0  0  0  0  0  0  0  0  0  0
   -0.7500   -1.2990    0.0000 C   0  0  0  0  0  0  0  0  0  0  0  0
    0.7500   -1.2990    0.0000 C   0  0  0  0  0  0  0  0  0  0  0  0
    1.5000   -2.5981    0.0000 N   0  0  0  0  0  0  0  0  0  0  0  0
    3.0000   -2.5981    0.0000 N   0  0  0  0  0  0  0  0  0  0  0  0
    3.7500   -3.8971    0.0000 C   0  0  0  0  0  0  0  0  0  0  0  0
    5.2500   -3.8971    0.0000 C   0  0  0  0  0  0  0  0  0  0  0  0
    6.0000   -5.1962    0.0000 C   0  0  0  0  0  0  0  0  0  0  0  0
    7.5000   -5.1962    0.0000 C   0  0  0  0  0  0  0  0  0  0  0  0
    8.2500   -3.8971    0.0000 N   0  0  0  0  0  0  0  0  0  0  0  0
    7.5000   -2.5981    0.0000 C   0  0  0  0  0  0  0  0  0  0  0  0
    6.0000   -2.5981    0.0000 C   0  0  0  0  0  0  0  0  0  0  0  0
    1.5000    0.0000    0.0000 N   0  0  0  0  0  0  0  0  0  0  0  0
    0.7500    1.2990    0.0000 C   0  0  0  0  0  0  0  0  0  0  0  0
   -0.7500    1.2990    0.0000 N   0  0  0  0  0  0  0  0  0  0  0  0
   -1.5000    0.0000    0.0000 C   0  0  0  0  0  0  0  0  0  0  0  0
   -5.5085    0.2283    0.0000 C   0  0  0  0  0  0  0  0  0  0  0  0
  1  2  1  0
  2  3  1  0
  3  4  2  0
  4  5  1  0
  5  6  2  0
  6  7  1  0
  7  8  1  0
  8  9  2  0
  9 10  1  0
 10 11  1  0
 11 12  2  0
 12 13  1  0
 13 14  1  0
 14 15  2  0
 15 16  1  0
 16 17  2  0
 17 18  1  0
 18 19  2  0
 19 20  1  0
 20 21  2  0
 12 22  1  0
 22 23  2  0
 23 24  1  0
 24 25  2  0
  7 26  2  0
 26  3  1  0
 25  8  1  0
 25 11  1  0
 21 16  1  0
M  END
>  <Compound_ID>  (730) 
CHEMBL206010

>  <Molecule Name>  (730) 
GW814408X

>  <Molecular Weight>  (730) 
344.38

>  <AlogP>  (730) 
3.47

>  <Smiles>  (730) 
COc1cccc(-c2c[nH]c3c(N/N=C/c4ccncc4)ncnc23)c1

>  <Standard Type>  (730) 
Inhibition

>  <Standard Relation>  (730) 
'='

>  <Standard Units>  (730) 
%

>  <Standard Value>  (730) 
0.85

>  <Assay ChEMBL ID>  (730) 
CHEMBL1962240

>  <Assay Description>  (730) 
GSK_PKIS: ALK mean inhibition at 0.1 uM [Nanosyn]

>  <BAO Format ID>  (730) 
BAO_0000357

>  <BAO Label>  (730) 
single protein format

>  <Assay Organism>  (730) 
None

>  <Target ChEMBL ID>  (730) 
CHEMBL4247

>  <Target Name>  (730) 
ALK tyrosine kinase receptor

>  <Target Organism>  (730) 
Homo sapiens

>  <Target Type>  (730) 
SINGLE PROTEIN

>  <Document ChEMBL ID>  (730) 
CHEMBL1961873

>  <Source Description>  (730) 
GSK Published Kinase Inhibitor Set

>  <Document Journal>  (730) 
nan

>  <Document Year>  (730) 
nan

>  <Active>  (730) 
0.0

>  <bits>  (730) 
<rdkit.DataStructs.cDataStructs.ExplicitBitVect object at 0x000002422F1EAF10>

>  <Group>  (730) 
G2

$$$$

     RDKit          2D

 39 43  0  0  0  0  0  0  0  0999 V2000
   -8.2322   -0.7949    0.0000 C   0  0  0  0  0  0  0  0  0  0  0  0
   -6.8056   -1.2584    0.0000 C   0  0  0  0  0  0  0  0  0  0  0  0
   -6.4937   -2.7256    0.0000 O   0  0  0  0  0  0  0  0  0  0  0  0
   -5.0672   -3.1891    0.0000 C   0  0  0  0  0  0  0  0  0  0  0  0
   -3.8536   -2.3075    0.0000 C   0  0  0  0  0  0  0  0  0  0  0  0
   -2.6401   -3.1891    0.0000 C   0  0  0  0  0  0  0  0  0  0  0  0
   -1.2135   -2.7256    0.0000 N   0  0  0  0  0  0  0  0  0  0  0  0
   -0.0000   -3.6073    0.0000 C   0  0  0  0  0  0  0  0  0  0  0  0
    1.2135   -2.7256    0.0000 N   0  0  0  0  0  0  0  0  0  0  0  0
    0.7500   -1.2990    0.0000 C   0  0  0  0  0  0  0  0  0  0  0  0
    1.5000    0.0000    0.0000 C   0  0  0  0  0  0  0  0  0  0  0  0
    0.7500    1.2990    0.0000 C   0  0  0  0  0  0  0  0  0  0  0  0
   -0.7500    1.2990    0.0000 C   0  0  0  0  0  0  0  0  0  0  0  0
   -1.5000    2.5981    0.0000 O   0  0  0  0  0  0  0  0  0  0  0  0
   -0.7500    3.8971    0.0000 C   0  0  0  0  0  0  0  0  0  0  0  0
   -1.5000    5.1962    0.0000 C   0  0  0  0  0  0  0  0  0  0  0  0
   -0.7500    6.4952    0.0000 C   0  0  0  0  0  0  0  0  0  0  0  0
   -1.5000    7.7942    0.0000 C   0  0  0  0  0  0  0  0  0  0  0  0
   -3.0000    7.7942    0.0000 N   0  0  0  0  0  0  0  0  0  0  0  0
   -3.7500    9.0933    0.0000 C   0  0  0  0  0  0  0  0  0  0  0  0
   -3.7500    6.4952    0.0000 C   0  0  0  0  0  0  0  0  0  0  0  0
   -3.0000    5.1962    0.0000 C   0  0  0  0  0  0  0  0  0  0  0  0
   -1.5000    0.0000    0.0000 C   0  0  0  0  0  0  0  0  0  0  0  0
   -0.7500   -1.2990    0.0000 C   0  0  0  0  0  0  0  0  0  0  0  0
   -3.1036   -4.6157    0.0000 S   0  0  0  0  0  0  0  0  0  0  0  0
   -4.6036   -4.6157    0.0000 C   0  0  0  0  0  0  0  0  0  0  0  0
   -5.4853   -5.8293    0.0000 C   0  0  0  0  0  0  0  0  0  0  0  0
   -4.8752   -7.1996    0.0000 N   0  0  0  0  0  0  0  0  0  0  0  0
   -6.9771   -5.6725    0.0000 O   0  0  0  0  0  0  0  0  0  0  0  0
   -5.6909   -0.2547    0.0000 C   0  0  0  0  0  0  0  0  0  0  0  0
   -4.2643   -0.7182    0.0000 C   0  0  0  0  0  0  0  0  0  0  0  0
   -3.1496    0.2855    0.0000 C   0  0  0  0  0  0  0  0  0  0  0  0
   -3.4615    1.7527    0.0000 C   0  0  0  0  0  0  0  0  0  0  0  0
   -4.8880    2.2162    0.0000 C   0  0  0  0  0  0  0  0  0  0  0  0
   -6.0028    1.2125    0.0000 C   0  0  0  0  0  0  0  0  0  0  0  0
   -7.4293    1.6760    0.0000 C   0  0  0  0  0  0  0  0  0  0  0  0
   -8.8559    2.1396    0.0000 F   0  0  0  0  0  0  0  0  0  0  0  0
   -6.9658    3.1026    0.0000 F   0  0  0  0  0  0  0  0  0  0  0  0
   -7.8929    0.2495    0.0000 F   0  0  0  0  0  0  0  0  0  0  0  0
  2  1  1  6
  2  3  1  0
  3  4  1  0
  4  5  1  0
  5  6  2  0
  6  7  1  0
  7  8  1  0
  8  9  2  0
  9 10  1  0
 10 11  2  0
 11 12  1  0
 12 13  2  0
 13 14  1  0
 14 15  1  0
 15 16  1  0
 16 17  1  0
 17 18  1  0
 18 19  1  0
 19 20  1  0
 19 21  1  0
 21 22  1  0
 13 23  1  0
 23 24  2  0
  6 25  1  0
 25 26  1  0
 26 27  1  0
 27 28  1  0
 27 29  2  0
  2 30  1  0
 30 31  2  0
 31 32  1  0
 32 33  2  0
 33 34  1  0
 34 35  2  0
 35 36  1  0
 36 37  1  0
 36 38  1  0
 36 39  1  0
 26  4  2  0
 35 30  1  0
 24  7  1  0
 24 10  1  0
 22 16  1  0
M  END
>  <Compound_ID>  (731) 
CHEMBL1794068

>  <Molecule Name>  (731) 
GSK-326090A

>  <Molecular Weight>  (731) 
558.63

>  <AlogP>  (731) 
6.07

>  <Smiles>  (731) 
C[C@@H](Oc1cc(-n2cnc3ccc(OCC4CCN(C)CC4)cc32)sc1C(N)=O)c1ccccc1C(F)(F)F

>  <Standard Type>  (731) 
Inhibition

>  <Standard Relation>  (731) 
'='

>  <Standard Units>  (731) 
%

>  <Standard Value>  (731) 
1.57

>  <Assay ChEMBL ID>  (731) 
CHEMBL1962240

>  <Assay Description>  (731) 
GSK_PKIS: ALK mean inhibition at 0.1 uM [Nanosyn]

>  <BAO Format ID>  (731) 
BAO_0000357

>  <BAO Label>  (731) 
single protein format

>  <Assay Organism>  (731) 
None

>  <Target ChEMBL ID>  (731) 
CHEMBL4247

>  <Target Name>  (731) 
ALK tyrosine kinase receptor

>  <Target Organism>  (731) 
Homo sapiens

>  <Target Type>  (731) 
SINGLE PROTEIN

>  <Document ChEMBL ID>  (731) 
CHEMBL1961873

>  <Source Description>  (731) 
GSK Published Kinase Inhibitor Set

>  <Document Journal>  (731) 
nan

>  <Document Year>  (731) 
nan

>  <Active>  (731) 
0.0

>  <bits>  (731) 
<rdkit.DataStructs.cDataStructs.ExplicitBitVect object at 0x000002422F1EA030>

>  <Group>  (731) 
G2

$$$$

     RDKit          2D

 31 35  0  0  0  0  0  0  0  0999 V2000
   12.7500   -1.2990    0.0000 F   0  0  0  0  0  0  0  0  0  0  0  0
   12.0000   -2.5981    0.0000 C   0  0  0  0  0  0  0  0  0  0  0  0
   12.7500   -3.8971    0.0000 C   0  0  0  0  0  0  0  0  0  0  0  0
   12.0000   -5.1962    0.0000 C   0  0  0  0  0  0  0  0  0  0  0  0
   10.5000   -5.1962    0.0000 C   0  0  0  0  0  0  0  0  0  0  0  0
    9.7500   -3.8971    0.0000 C   0  0  0  0  0  0  0  0  0  0  0  0
    8.2500   -3.8971    0.0000 C   0  0  0  0  0  0  0  0  0  0  0  0
    7.5000   -2.5981    0.0000 O   0  0  0  0  0  0  0  0  0  0  0  0
    6.0000   -2.5981    0.0000 C   0  0  0  0  0  0  0  0  0  0  0  0
    5.2500   -1.2990    0.0000 C   0  0  0  0  0  0  0  0  0  0  0  0
    3.7500   -1.2990    0.0000 C   0  0  0  0  0  0  0  0  0  0  0  0
    3.0000   -2.5981    0.0000 C   0  0  0  0  0  0  0  0  0  0  0  0
    1.5000   -2.5981    0.0000 N   0  0  0  0  0  0  0  0  0  0  0  0
    0.7500   -1.2990    0.0000 C   0  0  0  0  0  0  0  0  0  0  0  0
    1.5000    0.0000    0.0000 N   0  0  0  0  0  0  0  0  0  0  0  0
    0.7500    1.2990    0.0000 C   0  0  0  0  0  0  0  0  0  0  0  0
   -0.7500    1.2990    0.0000 N   0  0  0  0  0  0  0  0  0  0  0  0
   -1.5000    0.0000    0.0000 C   0  0  0  0  0  0  0  0  0  0  0  0
   -2.9672   -0.3119    0.0000 S   0  0  0  0  0  0  0  0  0  0  0  0
   -3.1240   -1.8037    0.0000 C   0  0  0  0  0  0  0  0  0  0  0  0
   -4.4231   -2.5537    0.0000 C   0  0  0  0  0  0  0  0  0  0  0  0
   -4.5798   -4.0454    0.0000 C   0  0  0  0  0  0  0  0  0  0  0  0
   -6.0471   -4.3573    0.0000 C   0  0  0  0  0  0  0  0  0  0  0  0
   -6.7971   -3.0583    0.0000 C   0  0  0  0  0  0  0  0  0  0  0  0
   -5.7934   -1.9435    0.0000 O   0  0  0  0  0  0  0  0  0  0  0  0
   -1.7537   -2.4138    0.0000 C   0  0  0  0  0  0  0  0  0  0  0  0
   -0.7500   -1.2990    0.0000 C   0  0  0  0  0  0  0  0  0  0  0  0
    3.7500   -3.8971    0.0000 C   0  0  0  0  0  0  0  0  0  0  0  0
    5.2500   -3.8971    0.0000 C   0  0  0  0  0  0  0  0  0  0  0  0
    6.0000   -5.1962    0.0000 Cl  0  0  0  0  0  0  0  0  0  0  0  0
   10.5000   -2.5981    0.0000 C   0  0  0  0  0  0  0  0  0  0  0  0
  1  2  1  0
  2  3  2  0
  3  4  1  0
  4  5  2  0
  5  6  1  0
  6  7  1  0
  7  8  1  0
  8  9  1  0
  9 10  2  0
 10 11  1  0
 11 12  2  0
 12 13  1  0
 13 14  1  0
 14 15  2  0
 15 16  1  0
 16 17  2  0
 17 18  1  0
 18 19  1  0
 19 20  1  0
 20 21  1  0
 21 22  2  0
 22 23  1  0
 23 24  2  0
 24 25  1  0
 20 26  2  0
 26 27  1  0
 12 28  1  0
 28 29  2  0
 29 30  1  0
  6 31  2  0
 31  2  1  0
 29  9  1  0
 27 14  1  0
 27 18  2  0
 25 21  1  0
M  END
>  <Compound_ID>  (732) 
CHEMBL514938

>  <Molecule Name>  (732) 
GSK-969786A

>  <Molecular Weight>  (732) 
451.91

>  <AlogP>  (732) 
7.07

>  <Smiles>  (732) 
Fc1cccc(COc2ccc(Nc3ncnc4sc(-c5ccco5)cc34)cc2Cl)c1

>  <Standard Type>  (732) 
Inhibition

>  <Standard Relation>  (732) 
'='

>  <Standard Units>  (732) 
%

>  <Standard Value>  (732) 
3.35

>  <Assay ChEMBL ID>  (732) 
CHEMBL1962240

>  <Assay Description>  (732) 
GSK_PKIS: ALK mean inhibition at 0.1 uM [Nanosyn]

>  <BAO Format ID>  (732) 
BAO_0000357

>  <BAO Label>  (732) 
single protein format

>  <Assay Organism>  (732) 
None

>  <Target ChEMBL ID>  (732) 
CHEMBL4247

>  <Target Name>  (732) 
ALK tyrosine kinase receptor

>  <Target Organism>  (732) 
Homo sapiens

>  <Target Type>  (732) 
SINGLE PROTEIN

>  <Document ChEMBL ID>  (732) 
CHEMBL1961873

>  <Source Description>  (732) 
GSK Published Kinase Inhibitor Set

>  <Document Journal>  (732) 
nan

>  <Document Year>  (732) 
nan

>  <Active>  (732) 
0.0

>  <bits>  (732) 
<rdkit.DataStructs.cDataStructs.ExplicitBitVect object at 0x000002422F1E95B0>

>  <Group>  (732) 
G2

$$$$

     RDKit          2D

 34 38  0  0  0  0  0  0  0  0999 V2000
   -5.0487    4.2236    0.0000 F   0  0  0  0  0  0  0  0  0  0  0  0
   -5.3605    2.7564    0.0000 C   0  0  0  0  0  0  0  0  0  0  0  0
   -4.2458    1.7527    0.0000 C   0  0  0  0  0  0  0  0  0  0  0  0
   -4.5577    0.2855    0.0000 C   0  0  0  0  0  0  0  0  0  0  0  0
   -5.9843   -0.1781    0.0000 C   0  0  0  0  0  0  0  0  0  0  0  0
   -6.2961   -1.6453    0.0000 N   0  0  0  0  0  0  0  0  0  0  0  0
   -5.1814   -2.6490    0.0000 C   0  0  0  0  0  0  0  0  0  0  0  0
   -5.4933   -4.1162    0.0000 N   0  0  0  0  0  0  0  0  0  0  0  0
   -4.3786   -5.1199    0.0000 C   0  0  0  0  0  0  0  0  0  0  0  0
   -2.9520   -4.6564    0.0000 C   0  0  0  0  0  0  0  0  0  0  0  0
   -2.6401   -3.1891    0.0000 C   0  0  0  0  0  0  0  0  0  0  0  0
   -1.2135   -2.7256    0.0000 C   0  0  0  0  0  0  0  0  0  0  0  0
   -0.0000   -3.6073    0.0000 C   0  0  0  0  0  0  0  0  0  0  0  0
   -0.0000   -5.1073    0.0000 C   0  0  0  0  0  0  0  0  0  0  0  0
   -1.2990   -5.8573    0.0000 C   0  0  0  0  0  0  0  0  0  0  0  0
   -1.2990   -7.3573    0.0000 C   0  0  0  0  0  0  0  0  0  0  0  0
   -0.0000   -8.1073    0.0000 C   0  0  0  0  0  0  0  0  0  0  0  0
    0.0000   -9.6073    0.0000 C   0  0  0  0  0  0  0  0  0  0  0  0
    0.0000  -11.1073    0.0000 F   0  0  0  0  0  0  0  0  0  0  0  0
   -1.5000   -9.6073    0.0000 F   0  0  0  0  0  0  0  0  0  0  0  0
    1.5000   -9.6073    0.0000 F   0  0  0  0  0  0  0  0  0  0  0  0
    1.2990   -7.3573    0.0000 C   0  0  0  0  0  0  0  0  0  0  0  0
    1.2990   -5.8573    0.0000 C   0  0  0  0  0  0  0  0  0  0  0  0
    1.2135   -2.7256    0.0000 N   0  0  0  0  0  0  0  0  0  0  0  0
    0.7500   -1.2990    0.0000 N   0  0  0  0  0  0  0  0  0  0  0  0
    1.5000    0.0000    0.0000 N   0  0  0  0  0  0  0  0  0  0  0  0
    0.7500    1.2990    0.0000 C   0  0  0  0  0  0  0  0  0  0  0  0
   -0.7500    1.2990    0.0000 C   0  0  0  0  0  0  0  0  0  0  0  0
   -1.5000    0.0000    0.0000 C   0  0  0  0  0  0  0  0  0  0  0  0
   -0.7500   -1.2990    0.0000 C   0  0  0  0  0  0  0  0  0  0  0  0
   -3.7548   -2.1855    0.0000 N   0  0  0  0  0  0  0  0  0  0  0  0
   -7.0990    0.8256    0.0000 C   0  0  0  0  0  0  0  0  0  0  0  0
   -6.7871    2.2929    0.0000 C   0  0  0  0  0  0  0  0  0  0  0  0
   -7.9018    3.2966    0.0000 F   0  0  0  0  0  0  0  0  0  0  0  0
  1  2  1  0
  2  3  2  0
  3  4  1  0
  4  5  2  0
  5  6  1  0
  6  7  1  0
  7  8  2  0
  8  9  1  0
  9 10  2  0
 10 11  1  0
 11 12  1  0
 12 13  1  0
 13 14  1  0
 14 15  2  0
 15 16  1  0
 16 17  2  0
 17 18  1  0
 18 19  1  0
 18 20  1  0
 18 21  1  0
 17 22  1  0
 22 23  2  0
 13 24  2  0
 24 25  1  0
 25 26  1  0
 26 27  2  0
 27 28  1  0
 28 29  2  0
 29 30  1  0
 11 31  2  0
  5 32  1  0
 32 33  2  0
 33 34  1  0
 33  2  1  0
 31  7  1  0
 30 12  2  0
 23 14  1  0
 30 25  1  0
M  END
>  <Compound_ID>  (733) 
CHEMBL188784

>  <Molecule Name>  (733) 
GW828529X

>  <Molecular Weight>  (733) 
468.39

>  <AlogP>  (733) 
5.89

>  <Smiles>  (733) 
Fc1ccc(Nc2nccc(-c3c(-c4ccc(C(F)(F)F)cc4)nn4ncccc34)n2)cc1F

>  <Standard Type>  (733) 
Inhibition

>  <Standard Relation>  (733) 
'='

>  <Standard Units>  (733) 
%

>  <Standard Value>  (733) 
6.53

>  <Assay ChEMBL ID>  (733) 
CHEMBL1962241

>  <Assay Description>  (733) 
GSK_PKIS: ALK mean inhibition at 1 uM [Nanosyn]

>  <BAO Format ID>  (733) 
BAO_0000357

>  <BAO Label>  (733) 
single protein format

>  <Assay Organism>  (733) 
None

>  <Target ChEMBL ID>  (733) 
CHEMBL4247

>  <Target Name>  (733) 
ALK tyrosine kinase receptor

>  <Target Organism>  (733) 
Homo sapiens

>  <Target Type>  (733) 
SINGLE PROTEIN

>  <Document ChEMBL ID>  (733) 
CHEMBL1961873

>  <Source Description>  (733) 
GSK Published Kinase Inhibitor Set

>  <Document Journal>  (733) 
nan

>  <Document Year>  (733) 
nan

>  <Active>  (733) 
0.0

>  <bits>  (733) 
<rdkit.DataStructs.cDataStructs.ExplicitBitVect object at 0x000002422F1E8900>

>  <Group>  (733) 
G2

$$$$

     RDKit          2D

 27 30  0  0  0  0  0  0  0  0999 V2000
    3.7500   -1.2990    0.0000 N   0  0  0  0  0  0  0  0  0  0  0  0
    3.0000    0.0000    0.0000 C   0  0  0  0  0  0  0  0  0  0  0  0
    1.5000    0.0000    0.0000 C   0  0  0  0  0  0  0  0  0  0  0  0
    0.7500   -1.2990    0.0000 C   0  0  0  0  0  0  0  0  0  0  0  0
   -0.7500   -1.2990    0.0000 C   0  0  0  0  0  0  0  0  0  0  0  0
   -1.5000    0.0000    0.0000 C   0  0  0  0  0  0  0  0  0  0  0  0
   -3.0000    0.0000    0.0000 C   0  0  0  0  0  0  0  0  0  0  0  0
   -3.8817   -1.2135    0.0000 N   0  0  0  0  0  0  0  0  0  0  0  0
   -5.3083   -0.7500    0.0000 C   0  0  0  0  0  0  0  0  0  0  0  0
   -6.5218   -1.6317    0.0000 C   0  0  0  0  0  0  0  0  0  0  0  0
   -7.8921   -1.0216    0.0000 C   0  0  0  0  0  0  0  0  0  0  0  0
   -9.1056   -1.9033    0.0000 C   0  0  0  0  0  0  0  0  0  0  0  0
   -8.9488   -3.3950    0.0000 C   0  0  0  0  0  0  0  0  0  0  0  0
  -10.1624   -4.2767    0.0000 Cl  0  0  0  0  0  0  0  0  0  0  0  0
   -7.5785   -4.0051    0.0000 C   0  0  0  0  0  0  0  0  0  0  0  0
   -7.4217   -5.4969    0.0000 O   0  0  0  0  0  0  0  0  0  0  0  0
   -6.3650   -3.1235    0.0000 C   0  0  0  0  0  0  0  0  0  0  0  0
   -5.3083    0.7500    0.0000 C   0  0  0  0  0  0  0  0  0  0  0  0
   -6.5218    1.6317    0.0000 C   0  0  0  0  0  0  0  0  0  0  0  0
   -6.3650    3.1235    0.0000 C   0  0  0  0  0  0  0  0  0  0  0  0
   -7.5785    4.0051    0.0000 C   0  0  0  0  0  0  0  0  0  0  0  0
   -8.9488    3.3950    0.0000 N   0  0  0  0  0  0  0  0  0  0  0  0
   -9.1056    1.9033    0.0000 C   0  0  0  0  0  0  0  0  0  0  0  0
   -7.8921    1.0216    0.0000 C   0  0  0  0  0  0  0  0  0  0  0  0
   -3.8817    1.2135    0.0000 N   0  0  0  0  0  0  0  0  0  0  0  0
   -0.7500    1.2990    0.0000 C   0  0  0  0  0  0  0  0  0  0  0  0
    0.7500    1.2990    0.0000 C   0  0  0  0  0  0  0  0  0  0  0  0
  1  2  1  0
  2  3  1  0
  3  4  2  0
  4  5  1  0
  5  6  2  0
  6  7  1  0
  7  8  2  0
  8  9  1  0
  9 10  1  0
 10 11  2  0
 11 12  1  0
 12 13  2  0
 13 14  1  0
 13 15  1  0
 15 16  1  0
 15 17  2  0
  9 18  2  0
 18 19  1  0
 19 20  2  0
 20 21  1  0
 21 22  2  0
 22 23  1  0
 23 24  2  0
 18 25  1  0
  6 26  1  0
 26 27  2  0
 27  3  1  0
 25  7  1  0
 17 10  1  0
 24 19  1  0
M  END
>  <Compound_ID>  (734) 
CHEMBL1909412

>  <Molecule Name>  (734) 
nan

>  <Molecular Weight>  (734) 
413.31

>  <AlogP>  (734) 
4.62

>  <Smiles>  (734) 
NCc1ccc(-c2nc(-c3ccc(Cl)c(O)c3)c(-c3ccncc3)[nH]2)cc1

>  <Standard Type>  (734) 
Inhibition

>  <Standard Relation>  (734) 
'='

>  <Standard Units>  (734) 
%

>  <Standard Value>  (734) 
-0.45

>  <Assay ChEMBL ID>  (734) 
CHEMBL1962240

>  <Assay Description>  (734) 
GSK_PKIS: ALK mean inhibition at 0.1 uM [Nanosyn]

>  <BAO Format ID>  (734) 
BAO_0000357

>  <BAO Label>  (734) 
single protein format

>  <Assay Organism>  (734) 
None

>  <Target ChEMBL ID>  (734) 
CHEMBL4247

>  <Target Name>  (734) 
ALK tyrosine kinase receptor

>  <Target Organism>  (734) 
Homo sapiens

>  <Target Type>  (734) 
SINGLE PROTEIN

>  <Document ChEMBL ID>  (734) 
CHEMBL1961873

>  <Source Description>  (734) 
GSK Published Kinase Inhibitor Set

>  <Document Journal>  (734) 
nan

>  <Document Year>  (734) 
nan

>  <Active>  (734) 
0.0

>  <bits>  (734) 
<rdkit.DataStructs.cDataStructs.ExplicitBitVect object at 0x000002422F1E92A0>

>  <Group>  (734) 
G2

$$$$

     RDKit          2D

 35 39  0  0  0  0  0  0  0  0999 V2000
    5.2500   -1.2990    0.0000 N   0  0  0  0  0  0  0  0  0  0  0  0
    3.7500   -1.2990    0.0000 C   0  0  0  0  0  0  0  0  0  0  0  0
    3.0000   -2.5981    0.0000 O   0  0  0  0  0  0  0  0  0  0  0  0
    3.0000    0.0000    0.0000 C   0  0  0  0  0  0  0  0  0  0  0  0
    1.5000    0.0000    0.0000 C   0  0  0  0  0  0  0  0  0  0  0  0
    0.7500   -1.2990    0.0000 C   0  0  0  0  0  0  0  0  0  0  0  0
   -0.7500   -1.2990    0.0000 C   0  0  0  0  0  0  0  0  0  0  0  0
   -1.5000    0.0000    0.0000 C   0  0  0  0  0  0  0  0  0  0  0  0
   -0.7500    1.2990    0.0000 C   0  0  0  0  0  0  0  0  0  0  0  0
    0.7500    1.2990    0.0000 C   0  0  0  0  0  0  0  0  0  0  0  0
    1.5000    2.5981    0.0000 O   0  0  0  0  0  0  0  0  0  0  0  0
    0.7500    3.8971    0.0000 C   0  0  0  0  0  0  0  0  0  0  0  0
    1.5000    5.1962    0.0000 N   0  0  0  0  0  0  0  0  0  0  0  0
    0.7500    6.4952    0.0000 C   0  0  0  0  0  0  0  0  0  0  0  0
   -0.7500    6.4952    0.0000 C   0  0  0  0  0  0  0  0  0  0  0  0
   -1.5000    5.1962    0.0000 C   0  0  0  0  0  0  0  0  0  0  0  0
   -3.0000    5.1962    0.0000 C   0  0  0  0  0  0  0  0  0  0  0  0
   -3.8817    3.9826    0.0000 C   0  0  0  0  0  0  0  0  0  0  0  0
   -3.4182    2.5560    0.0000 C   0  0  0  0  0  0  0  0  0  0  0  0
   -4.4218    1.4413    0.0000 C   0  0  0  0  0  0  0  0  0  0  0  0
   -3.9583    0.0147    0.0000 C   0  0  0  0  0  0  0  0  0  0  0  0
   -2.4911   -0.2971    0.0000 C   0  0  0  0  0  0  0  0  0  0  0  0
   -2.0276   -1.7237    0.0000 F   0  0  0  0  0  0  0  0  0  0  0  0
   -1.4874    0.8176    0.0000 C   0  0  0  0  0  0  0  0  0  0  0  0
   -1.9509    2.2442    0.0000 C   0  0  0  0  0  0  0  0  0  0  0  0
   -5.3083    4.4462    0.0000 N   0  0  0  0  0  0  0  0  0  0  0  0
   -5.3083    5.9462    0.0000 C   0  0  0  0  0  0  0  0  0  0  0  0
   -3.8817    6.4097    0.0000 N   0  0  0  0  0  0  0  0  0  0  0  0
   -3.4182    7.8363    0.0000 C   0  0  0  0  0  0  0  0  0  0  0  0
   -1.9509    8.1481    0.0000 C   0  0  0  0  0  0  0  0  0  0  0  0
   -1.4874    9.5747    0.0000 C   0  0  0  0  0  0  0  0  0  0  0  0
   -2.4911   10.6894    0.0000 N   0  0  0  0  0  0  0  0  0  0  0  0
   -3.9583   10.3776    0.0000 C   0  0  0  0  0  0  0  0  0  0  0  0
   -4.4218    8.9510    0.0000 C   0  0  0  0  0  0  0  0  0  0  0  0
   -0.7500    3.8971    0.0000 N   0  0  0  0  0  0  0  0  0  0  0  0
  1  2  1  0
  2  3  2  0
  2  4  1  0
  4  5  1  0
  5  6  2  0
  6  7  1  0
  7  8  2  0
  8  9  1  0
  9 10  2  0
 10 11  1  0
 11 12  1  0
 12 13  2  0
 13 14  1  0
 14 15  2  0
 15 16  1  0
 16 17  1  0
 17 18  2  0
 18 19  1  0
 19 20  2  0
 20 21  1  0
 21 22  2  0
 22 23  1  0
 22 24  1  0
 24 25  2  0
 18 26  1  0
 26 27  2  0
 27 28  1  0
 28 29  1  0
 29 30  1  0
 30 31  1  0
 31 32  1  0
 32 33  1  0
 33 34  1  0
 16 35  2  0
 10  5  1  0
 35 12  1  0
 28 17  1  0
 34 29  1  0
 25 19  1  0
M  END
>  <Compound_ID>  (735) 
CHEMBL1785002

>  <Molecule Name>  (735) 
nan

>  <Molecular Weight>  (735) 
472.52

>  <AlogP>  (735) 
3.89

>  <Smiles>  (735) 
NC(=O)Cc1ccccc1Oc1nccc(-c2c(-c3ccc(F)cc3)ncn2C2CCNCC2)n1

>  <Standard Type>  (735) 
Inhibition

>  <Standard Relation>  (735) 
'='

>  <Standard Units>  (735) 
%

>  <Standard Value>  (735) 
4.05

>  <Assay ChEMBL ID>  (735) 
CHEMBL1962240

>  <Assay Description>  (735) 
GSK_PKIS: ALK mean inhibition at 0.1 uM [Nanosyn]

>  <BAO Format ID>  (735) 
BAO_0000357

>  <BAO Label>  (735) 
single protein format

>  <Assay Organism>  (735) 
None

>  <Target ChEMBL ID>  (735) 
CHEMBL4247

>  <Target Name>  (735) 
ALK tyrosine kinase receptor

>  <Target Organism>  (735) 
Homo sapiens

>  <Target Type>  (735) 
SINGLE PROTEIN

>  <Document ChEMBL ID>  (735) 
CHEMBL1961873

>  <Source Description>  (735) 
GSK Published Kinase Inhibitor Set

>  <Document Journal>  (735) 
nan

>  <Document Year>  (735) 
nan

>  <Active>  (735) 
0.0

>  <bits>  (735) 
<rdkit.DataStructs.cDataStructs.ExplicitBitVect object at 0x000002422F1EA9D0>

>  <Group>  (735) 
G2

$$$$

     RDKit          2D

 21 24  0  0  0  0  0  0  0  0999 V2000
   -2.6401   -5.5255    0.0000 N   0  0  0  0  0  0  0  0  0  0  0  0
   -1.2135   -5.9890    0.0000 C   0  0  0  0  0  0  0  0  0  0  0  0
   -0.7500   -7.4156    0.0000 N   0  0  0  0  0  0  0  0  0  0  0  0
    0.7500   -7.4156    0.0000 O   0  0  0  0  0  0  0  0  0  0  0  0
    1.2135   -5.9890    0.0000 N   0  0  0  0  0  0  0  0  0  0  0  0
   -0.0000   -5.1073    0.0000 C   0  0  0  0  0  0  0  0  0  0  0  0
   -0.0000   -3.6073    0.0000 C   0  0  0  0  0  0  0  0  0  0  0  0
    1.2135   -2.7256    0.0000 N   0  0  0  0  0  0  0  0  0  0  0  0
    0.7500   -1.2990    0.0000 C   0  0  0  0  0  0  0  0  0  0  0  0
    1.5000    0.0000    0.0000 C   0  0  0  0  0  0  0  0  0  0  0  0
    0.7500    1.2990    0.0000 N   0  0  0  0  0  0  0  0  0  0  0  0
   -0.7500    1.2990    0.0000 C   0  0  0  0  0  0  0  0  0  0  0  0
   -1.5000    0.0000    0.0000 C   0  0  0  0  0  0  0  0  0  0  0  0
   -0.7500   -1.2990    0.0000 C   0  0  0  0  0  0  0  0  0  0  0  0
   -1.2135   -2.7256    0.0000 N   0  0  0  0  0  0  0  0  0  0  0  0
   -2.6401   -3.1891    0.0000 C   0  0  0  0  0  0  0  0  0  0  0  0
   -3.7548   -2.1855    0.0000 C   0  0  0  0  0  0  0  0  0  0  0  0
   -5.1814   -2.6490    0.0000 C   0  0  0  0  0  0  0  0  0  0  0  0
   -5.4933   -4.1162    0.0000 C   0  0  0  0  0  0  0  0  0  0  0  0
   -4.3786   -5.1199    0.0000 C   0  0  0  0  0  0  0  0  0  0  0  0
   -2.9520   -4.6564    0.0000 C   0  0  0  0  0  0  0  0  0  0  0  0
  1  2  1  0
  2  3  2  0
  3  4  1  0
  4  5  1  0
  5  6  2  0
  6  7  1  0
  7  8  2  0
  8  9  1  0
  9 10  2  0
 10 11  1  0
 11 12  2  0
 12 13  1  0
 13 14  2  0
 14 15  1  0
 15 16  1  0
 16 17  1  0
 17 18  1  0
 18 19  1  0
 19 20  1  0
 20 21  1  0
  6  2  1  0
 15  7  1  0
 21 16  1  0
 14  9  1  0
M  END
>  <Compound_ID>  (736) 
CHEMBL189231

>  <Molecule Name>  (736) 
nan

>  <Molecular Weight>  (736) 
284.32

>  <AlogP>  (736) 
2.57

>  <Smiles>  (736) 
Nc1nonc1-c1nc2cnccc2n1C1CCCCC1

>  <Standard Type>  (736) 
Inhibition

>  <Standard Relation>  (736) 
'='

>  <Standard Units>  (736) 
%

>  <Standard Value>  (736) 
-2.37

>  <Assay ChEMBL ID>  (736) 
CHEMBL1962240

>  <Assay Description>  (736) 
GSK_PKIS: ALK mean inhibition at 0.1 uM [Nanosyn]

>  <BAO Format ID>  (736) 
BAO_0000357

>  <BAO Label>  (736) 
single protein format

>  <Assay Organism>  (736) 
None

>  <Target ChEMBL ID>  (736) 
CHEMBL4247

>  <Target Name>  (736) 
ALK tyrosine kinase receptor

>  <Target Organism>  (736) 
Homo sapiens

>  <Target Type>  (736) 
SINGLE PROTEIN

>  <Document ChEMBL ID>  (736) 
CHEMBL1961873

>  <Source Description>  (736) 
GSK Published Kinase Inhibitor Set

>  <Document Journal>  (736) 
nan

>  <Document Year>  (736) 
nan

>  <Active>  (736) 
0.0

>  <bits>  (736) 
<rdkit.DataStructs.cDataStructs.ExplicitBitVect object at 0x000002422F1EA260>

>  <Group>  (736) 
G2

$$$$

     RDKit          2D

 21 24  0  0  0  0  0  0  0  0999 V2000
   -2.6401   -3.1891    0.0000 C   0  0  0  0  0  0  0  0  0  0  0  0
   -1.2135   -2.7256    0.0000 N   0  0  0  0  0  0  0  0  0  0  0  0
   -0.0000   -3.6073    0.0000 C   0  0  0  0  0  0  0  0  0  0  0  0
   -0.0000   -5.1073    0.0000 O   0  0  0  0  0  0  0  0  0  0  0  0
    1.2135   -2.7256    0.0000 C   0  0  0  0  0  0  0  0  0  0  0  0
    2.6401   -3.1891    0.0000 C   0  0  0  0  0  0  0  0  0  0  0  0
    3.8536   -2.3075    0.0000 C   0  0  0  0  0  0  0  0  0  0  0  0
    3.8536   -0.8075    0.0000 O   0  0  0  0  0  0  0  0  0  0  0  0
    5.0672   -3.1891    0.0000 N   0  0  0  0  0  0  0  0  0  0  0  0
    4.6036   -4.6157    0.0000 C   0  0  0  0  0  0  0  0  0  0  0  0
    5.3536   -5.9148    0.0000 C   0  0  0  0  0  0  0  0  0  0  0  0
    4.6036   -7.2138    0.0000 C   0  0  0  0  0  0  0  0  0  0  0  0
    3.1036   -7.2138    0.0000 C   0  0  0  0  0  0  0  0  0  0  0  0
    2.3536   -5.9148    0.0000 C   0  0  0  0  0  0  0  0  0  0  0  0
    3.1036   -4.6157    0.0000 C   0  0  0  0  0  0  0  0  0  0  0  0
    0.7500   -1.2990    0.0000 C   0  0  0  0  0  0  0  0  0  0  0  0
    1.5000    0.0000    0.0000 C   0  0  0  0  0  0  0  0  0  0  0  0
    0.7500    1.2990    0.0000 C   0  0  0  0  0  0  0  0  0  0  0  0
   -0.7500    1.2990    0.0000 C   0  0  0  0  0  0  0  0  0  0  0  0
   -1.5000    0.0000    0.0000 C   0  0  0  0  0  0  0  0  0  0  0  0
   -0.7500   -1.2990    0.0000 C   0  0  0  0  0  0  0  0  0  0  0  0
  1  2  1  0
  2  3  1  0
  3  4  2  0
  3  5  1  0
  5  6  2  0
  6  7  1  0
  7  8  2  0
  7  9  1  0
  9 10  1  0
 10 11  2  0
 11 12  1  0
 12 13  2  0
 13 14  1  0
 14 15  2  0
  5 16  1  0
 16 17  2  0
 17 18  1  0
 18 19  2  0
 19 20  1  0
 20 21  2  0
 21  2  1  0
 15  6  1  0
 21 16  1  0
 15 10  1  0
M  END
>  <Compound_ID>  (737) 
CHEMBL607535

>  <Molecule Name>  (737) 
MEISOINDIGO

>  <Molecular Weight>  (737) 
276.3

>  <AlogP>  (737) 
2.53

>  <Smiles>  (737) 
CN1C(=O)/C(=C2/C(=O)Nc3ccccc32)c2ccccc21

>  <Standard Type>  (737) 
Inhibition

>  <Standard Relation>  (737) 
'='

>  <Standard Units>  (737) 
%

>  <Standard Value>  (737) 
0.0

>  <Assay ChEMBL ID>  (737) 
CHEMBL1068652

>  <Assay Description>  (737) 
Inhibition of ALK at 10 uM

>  <BAO Format ID>  (737) 
BAO_0000357

>  <BAO Label>  (737) 
single protein format

>  <Assay Organism>  (737) 
None

>  <Target ChEMBL ID>  (737) 
CHEMBL4247

>  <Target Name>  (737) 
ALK tyrosine kinase receptor

>  <Target Organism>  (737) 
Homo sapiens

>  <Target Type>  (737) 
SINGLE PROTEIN

>  <Document ChEMBL ID>  (737) 
CHEMBL1152632

>  <Source Description>  (737) 
Scientific Literature

>  <Document Journal>  (737) 
Bioorg Med Chem

>  <Document Year>  (737) 
2009.0

>  <Active>  (737) 
0.0

>  <bits>  (737) 
<rdkit.DataStructs.cDataStructs.ExplicitBitVect object at 0x000002422F1E8040>

>  <Group>  (737) 
G2

$$$$

     RDKit          2D

 33 37  0  0  0  0  0  0  0  0999 V2000
   -4.0819    0.6918    0.0000 C   0  0  0  0  0  0  0  0  0  0  0  0
   -2.9672   -0.3119    0.0000 N   0  0  0  0  0  0  0  0  0  0  0  0
   -3.1240   -1.8037    0.0000 N   0  0  0  0  0  0  0  0  0  0  0  0
   -1.7537   -2.4138    0.0000 C   0  0  0  0  0  0  0  0  0  0  0  0
   -0.7500   -1.2990    0.0000 C   0  0  0  0  0  0  0  0  0  0  0  0
    0.7500   -1.2990    0.0000 C   0  0  0  0  0  0  0  0  0  0  0  0
    1.5000   -2.5981    0.0000 O   0  0  0  0  0  0  0  0  0  0  0  0
    3.0000   -2.5981    0.0000 C   0  0  0  0  0  0  0  0  0  0  0  0
    3.7500   -1.2990    0.0000 C   0  0  0  0  0  0  0  0  0  0  0  0
    5.2500   -1.2990    0.0000 C   0  0  0  0  0  0  0  0  0  0  0  0
    6.0000   -2.5981    0.0000 C   0  0  0  0  0  0  0  0  0  0  0  0
    5.2500   -3.8971    0.0000 C   0  0  0  0  0  0  0  0  0  0  0  0
    3.7500   -3.8971    0.0000 C   0  0  0  0  0  0  0  0  0  0  0  0
    6.2537   -5.0118    0.0000 N   0  0  0  0  0  0  0  0  0  0  0  0
    7.6240   -4.4017    0.0000 C   0  0  0  0  0  0  0  0  0  0  0  0
    8.9231   -5.1517    0.0000 N   0  0  0  0  0  0  0  0  0  0  0  0
    8.9231   -6.6517    0.0000 C   0  0  0  0  0  0  0  0  0  0  0  0
    7.6240   -7.4017    0.0000 C   0  0  0  0  0  0  0  0  0  0  0  0
    7.6240   -8.9017    0.0000 C   0  0  0  0  0  0  0  0  0  0  0  0
    8.9231   -9.6517    0.0000 C   0  0  0  0  0  0  0  0  0  0  0  0
    8.9231  -11.1517    0.0000 O   0  0  0  0  0  0  0  0  0  0  0  0
    7.6240  -11.9017    0.0000 C   0  0  0  0  0  0  0  0  0  0  0  0
    6.3250  -12.6517    0.0000 F   0  0  0  0  0  0  0  0  0  0  0  0
    8.3740  -13.2008    0.0000 F   0  0  0  0  0  0  0  0  0  0  0  0
    6.8740  -10.6027    0.0000 F   0  0  0  0  0  0  0  0  0  0  0  0
   10.2221   -8.9017    0.0000 C   0  0  0  0  0  0  0  0  0  0  0  0
   10.2221   -7.4017    0.0000 C   0  0  0  0  0  0  0  0  0  0  0  0
    7.4672   -2.9099    0.0000 N   0  0  0  0  0  0  0  0  0  0  0  0
    8.5819   -1.9062    0.0000 C   0  0  0  0  0  0  0  0  0  0  0  0
    1.5000    0.0000    0.0000 N   0  0  0  0  0  0  0  0  0  0  0  0
    0.7500    1.2990    0.0000 C   0  0  0  0  0  0  0  0  0  0  0  0
   -0.7500    1.2990    0.0000 N   0  0  0  0  0  0  0  0  0  0  0  0
   -1.5000    0.0000    0.0000 C   0  0  0  0  0  0  0  0  0  0  0  0
  1  2  1  0
  2  3  1  0
  3  4  2  0
  4  5  1  0
  5  6  2  0
  6  7  1  0
  7  8  1  0
  8  9  2  0
  9 10  1  0
 10 11  2  0
 11 12  1  0
 12 13  2  0
 12 14  1  0
 14 15  2  0
 15 16  1  0
 16 17  1  0
 17 18  2  0
 18 19  1  0
 19 20  2  0
 20 21  1  0
 21 22  1  0
 22 23  1  0
 22 24  1  0
 22 25  1  0
 20 26  1  0
 26 27  2  0
 15 28  1  0
 28 29  1  0
  6 30  1  0
 30 31  2  0
 31 32  1  0
 32 33  2  0
 33  2  1  0
 33  5  1  0
 13  8  1  0
 27 17  1  0
 28 11  1  0
M  END
>  <Compound_ID>  (738) 
CHEMBL4170025

>  <Molecule Name>  (738) 
nan

>  <Molecular Weight>  (738) 
455.4

>  <AlogP>  (738) 
4.68

>  <Smiles>  (738) 
Cn1ncc2c(Oc3ccc4c(c3)nc(Nc3ccc(OC(F)(F)F)cc3)n4C)ncnc21

>  <Standard Type>  (738) 
Inhibition

>  <Standard Relation>  (738) 
'='

>  <Standard Units>  (738) 
%

>  <Standard Value>  (738) 
-11.7

>  <Assay ChEMBL ID>  (738) 
CHEMBL4155790

>  <Assay Description>  (738) 
Inhibition of ALK (unknown origin) at 1 uM relative to control

>  <BAO Format ID>  (738) 
BAO_0000357

>  <BAO Label>  (738) 
single protein format

>  <Assay Organism>  (738) 
Homo sapiens

>  <Target ChEMBL ID>  (738) 
CHEMBL4247

>  <Target Name>  (738) 
ALK tyrosine kinase receptor

>  <Target Organism>  (738) 
Homo sapiens

>  <Target Type>  (738) 
SINGLE PROTEIN

>  <Document ChEMBL ID>  (738) 
CHEMBL4152295

>  <Source Description>  (738) 
Scientific Literature

>  <Document Journal>  (738) 
Eur J Med Chem

>  <Document Year>  (738) 
2018.0

>  <Active>  (738) 
0.0

>  <bits>  (738) 
<rdkit.DataStructs.cDataStructs.ExplicitBitVect object at 0x000002422F1E8820>

>  <Group>  (738) 
G2

$$$$

     RDKit          2D

 24 27  0  0  0  0  0  0  0  0999 V2000
   -8.0346   -3.5760    0.0000 C   0  0  0  0  0  0  0  0  0  0  0  0
   -6.9199   -4.5797    0.0000 O   0  0  0  0  0  0  0  0  0  0  0  0
   -5.4933   -4.1162    0.0000 C   0  0  0  0  0  0  0  0  0  0  0  0
   -5.1814   -2.6490    0.0000 C   0  0  0  0  0  0  0  0  0  0  0  0
   -3.7548   -2.1855    0.0000 C   0  0  0  0  0  0  0  0  0  0  0  0
   -2.6401   -3.1891    0.0000 C   0  0  0  0  0  0  0  0  0  0  0  0
   -1.2135   -2.7256    0.0000 C   0  0  0  0  0  0  0  0  0  0  0  0
   -0.0000   -3.6073    0.0000 N   0  0  0  0  0  0  0  0  0  0  0  0
    1.2135   -2.7256    0.0000 N   0  0  0  0  0  0  0  0  0  0  0  0
    2.6401   -3.1891    0.0000 C   0  0  0  0  0  0  0  0  0  0  0  0
    3.3211   -4.5257    0.0000 C   0  0  0  0  0  0  0  0  0  0  0  0
    4.6576   -3.8447    0.0000 C   0  0  0  0  0  0  0  0  0  0  0  0
    3.9766   -2.5082    0.0000 C   0  0  0  0  0  0  0  0  0  0  0  0
    0.7500   -1.2990    0.0000 C   0  0  0  0  0  0  0  0  0  0  0  0
    1.5000    0.0000    0.0000 N   0  0  0  0  0  0  0  0  0  0  0  0
    0.7500    1.2990    0.0000 C   0  0  0  0  0  0  0  0  0  0  0  0
   -0.7500    1.2990    0.0000 N   0  0  0  0  0  0  0  0  0  0  0  0
   -1.5000    0.0000    0.0000 C   0  0  0  0  0  0  0  0  0  0  0  0
   -3.0000    0.0000    0.0000 N   0  0  0  0  0  0  0  0  0  0  0  0
   -0.7500   -1.2990    0.0000 C   0  0  0  0  0  0  0  0  0  0  0  0
   -2.9520   -4.6564    0.0000 C   0  0  0  0  0  0  0  0  0  0  0  0
   -4.3786   -5.1199    0.0000 C   0  0  0  0  0  0  0  0  0  0  0  0
   -4.6904   -6.5871    0.0000 O   0  0  0  0  0  0  0  0  0  0  0  0
   -3.5757   -7.5908    0.0000 C   0  0  0  0  0  0  0  0  0  0  0  0
  1  2  1  0
  2  3  1  0
  3  4  2  0
  4  5  1  0
  5  6  2  0
  6  7  1  0
  7  8  2  0
  8  9  1  0
  9 10  1  0
 10 11  1  0
 11 12  1  0
 12 13  1  0
  9 14  1  0
 14 15  2  0
 15 16  1  0
 16 17  2  0
 17 18  1  0
 18 19  1  0
 18 20  2  0
  6 21  1  0
 21 22  2  0
 22 23  1  0
 23 24  1  0
 22  3  1  0
 20  7  1  0
 13 10  1  0
 20 14  1  0
M  END
>  <Compound_ID>  (739) 
CHEMBL1233881

>  <Molecule Name>  (739) 
nan

>  <Molecular Weight>  (739) 
325.37

>  <AlogP>  (739) 
2.82

>  <Smiles>  (739) 
COc1ccc(-c2nn(C3CCC3)c3ncnc(N)c23)cc1OC

>  <Standard Type>  (739) 
Inhibition

>  <Standard Relation>  (739) 
'='

>  <Standard Units>  (739) 
%

>  <Standard Value>  (739) 
6.0

>  <Assay ChEMBL ID>  (739) 
CHEMBL1243991

>  <Assay Description>  (739) 
Inhibition of ALK at 1 uM after 60 mins by FRET assay in presence of 10 uM ATP

>  <BAO Format ID>  (739) 
BAO_0000357

>  <BAO Label>  (739) 
single protein format

>  <Assay Organism>  (739) 
None

>  <Target ChEMBL ID>  (739) 
CHEMBL4247

>  <Target Name>  (739) 
ALK tyrosine kinase receptor

>  <Target Organism>  (739) 
Homo sapiens

>  <Target Type>  (739) 
SINGLE PROTEIN

>  <Document ChEMBL ID>  (739) 
CHEMBL1240340

>  <Source Description>  (739) 
Scientific Literature

>  <Document Journal>  (739) 
Nat Chem Biol

>  <Document Year>  (739) 
2008.0

>  <Active>  (739) 
0.0

>  <bits>  (739) 
<rdkit.DataStructs.cDataStructs.ExplicitBitVect object at 0x000002422F1E87B0>

>  <Group>  (739) 
G2

$$$$

     RDKit          2D

 28 30  0  0  0  0  0  0  0  0999 V2000
   -5.3083   -1.1828    0.0000 C   0  0  0  0  0  0  0  0  0  0  0  0
   -6.5218   -2.0645    0.0000 N   0  0  0  0  0  0  0  0  0  0  0  0
   -7.9484   -1.6009    0.0000 N   0  0  0  0  0  0  0  0  0  0  0  0
   -8.8301   -2.8145    0.0000 C   0  0  0  0  0  0  0  0  0  0  0  0
   -7.9484   -4.0280    0.0000 C   0  0  0  0  0  0  0  0  0  0  0  0
   -8.4119   -5.4546    0.0000 Cl  0  0  0  0  0  0  0  0  0  0  0  0
   -6.5218   -3.5645    0.0000 C   0  0  0  0  0  0  0  0  0  0  0  0
   -5.3083   -4.4462    0.0000 C   0  0  0  0  0  0  0  0  0  0  0  0
   -3.8817   -3.9826    0.0000 C   0  0  0  0  0  0  0  0  0  0  0  0
   -3.0000   -5.1962    0.0000 C   0  0  0  0  0  0  0  0  0  0  0  0
   -1.5000   -5.1962    0.0000 C   0  0  0  0  0  0  0  0  0  0  0  0
   -0.7500   -6.4952    0.0000 O   0  0  0  0  0  0  0  0  0  0  0  0
   -0.7500   -3.8971    0.0000 N   0  0  0  0  0  0  0  0  0  0  0  0
    0.7500   -3.8971    0.0000 C   0  0  0  0  0  0  0  0  0  0  0  0
    1.5000   -5.1962    0.0000 C   0  0  0  0  0  0  0  0  0  0  0  0
    0.7500   -6.4952    0.0000 N   0  0  0  0  0  0  0  0  0  0  0  0
    1.5000   -2.5981    0.0000 C   0  0  0  0  0  0  0  0  0  0  0  0
    0.7500   -1.2990    0.0000 C   0  0  0  0  0  0  0  0  0  0  0  0
    1.5000    0.0000    0.0000 C   0  0  0  0  0  0  0  0  0  0  0  0
    0.7500    1.2990    0.0000 C   0  0  0  0  0  0  0  0  0  0  0  0
   -0.7500    1.2990    0.0000 C   0  0  0  0  0  0  0  0  0  0  0  0
   -1.5000    2.5981    0.0000 F   0  0  0  0  0  0  0  0  0  0  0  0
   -1.5000    0.0000    0.0000 C   0  0  0  0  0  0  0  0  0  0  0  0
   -3.0000    0.0000    0.0000 F   0  0  0  0  0  0  0  0  0  0  0  0
   -0.7500   -1.2990    0.0000 C   0  0  0  0  0  0  0  0  0  0  0  0
   -3.8817   -6.4097    0.0000 O   0  0  0  0  0  0  0  0  0  0  0  0
   -5.3083   -5.9462    0.0000 C   0  0  0  0  0  0  0  0  0  0  0  0
   -6.5218   -6.8278    0.0000 Cl  0  0  0  0  0  0  0  0  0  0  0  0
  1  2  1  0
  2  3  1  0
  3  4  2  0
  4  5  1  0
  5  6  1  0
  5  7  2  0
  7  8  1  0
  8  9  1  0
  9 10  2  0
 10 11  1  0
 11 12  2  0
 11 13  1  0
 13 14  1  0
 14 15  1  1
 15 16  1  0
 14 17  1  0
 17 18  1  0
 18 19  2  0
 19 20  1  0
 20 21  2  0
 21 22  1  0
 21 23  1  0
 23 24  1  0
 23 25  2  0
 10 26  1  0
 26 27  1  0
 27 28  1  0
  7  2  1  0
 27  8  2  0
 25 18  1  0
M  END
>  <Compound_ID>  (740) 
CHEMBL3137336

>  <Molecule Name>  (740) 
UPROSERTIB

>  <Molecular Weight>  (740) 
429.25

>  <AlogP>  (740) 
3.56

>  <Smiles>  (740) 
Cn1ncc(Cl)c1-c1cc(C(=O)N[C@H](CN)Cc2ccc(F)c(F)c2)oc1Cl

>  <Standard Type>  (740) 
Inhibition

>  <Standard Relation>  (740) 
'='

>  <Standard Units>  (740) 
%

>  <Standard Value>  (740) 
5.8

>  <Assay ChEMBL ID>  (740) 
CHEMBL4407376

>  <Assay Description>  (740) 
Inhibition of human ALK at 0.5 uM by mobility shift assay relative to control

>  <BAO Format ID>  (740) 
BAO_0000357

>  <BAO Label>  (740) 
single protein format

>  <Assay Organism>  (740) 
Homo sapiens

>  <Target ChEMBL ID>  (740) 
CHEMBL4247

>  <Target Name>  (740) 
ALK tyrosine kinase receptor

>  <Target Organism>  (740) 
Homo sapiens

>  <Target Type>  (740) 
SINGLE PROTEIN

>  <Document ChEMBL ID>  (740) 
CHEMBL4406807

>  <Source Description>  (740) 
Scientific Literature

>  <Document Journal>  (740) 
J Med Chem

>  <Document Year>  (740) 
2019.0

>  <Active>  (740) 
0.0

>  <bits>  (740) 
<rdkit.DataStructs.cDataStructs.ExplicitBitVect object at 0x000002422F1E89E0>

>  <Group>  (740) 
G2

$$$$

     RDKit          2D

 36 40  0  0  0  0  0  0  0  0999 V2000
   -3.7500   -6.4952    0.0000 C   0  0  0  0  0  0  0  0  0  0  0  0
   -3.0000   -5.1962    0.0000 O   0  0  0  0  0  0  0  0  0  0  0  0
   -1.5000   -5.1962    0.0000 C   0  0  0  0  0  0  0  0  0  0  0  0
   -0.7500   -3.8971    0.0000 C   0  0  0  0  0  0  0  0  0  0  0  0
    0.7500   -3.8971    0.0000 C   0  0  0  0  0  0  0  0  0  0  0  0
    1.5000   -2.5981    0.0000 N   0  0  0  0  0  0  0  0  0  0  0  0
    0.7500   -1.2990    0.0000 C   0  0  0  0  0  0  0  0  0  0  0  0
    1.5000    0.0000    0.0000 N   0  0  0  0  0  0  0  0  0  0  0  0
    0.7500    1.2990    0.0000 C   0  0  0  0  0  0  0  0  0  0  0  0
   -0.7500    1.2990    0.0000 C   0  0  0  0  0  0  0  0  0  0  0  0
   -1.7537    2.4138    0.0000 C   0  0  0  0  0  0  0  0  0  0  0  0
   -1.4418    3.8810    0.0000 C   0  0  0  0  0  0  0  0  0  0  0  0
   -3.1240    1.8037    0.0000 N   0  0  0  0  0  0  0  0  0  0  0  0
   -2.9672    0.3119    0.0000 C   0  0  0  0  0  0  0  0  0  0  0  0
   -4.0819   -0.6918    0.0000 C   0  0  0  0  0  0  0  0  0  0  0  0
   -5.5085   -0.2283    0.0000 C   0  0  0  0  0  0  0  0  0  0  0  0
   -6.6232   -1.2320    0.0000 C   0  0  0  0  0  0  0  0  0  0  0  0
   -6.3114   -2.6992    0.0000 C   0  0  0  0  0  0  0  0  0  0  0  0
   -4.8848   -3.1627    0.0000 C   0  0  0  0  0  0  0  0  0  0  0  0
   -4.5729   -4.6300    0.0000 O   0  0  0  0  0  0  0  0  0  0  0  0
   -5.6876   -5.6337    0.0000 C   0  0  0  0  0  0  0  0  0  0  0  0
   -7.1142   -5.1701    0.0000 C   0  0  0  0  0  0  0  0  0  0  0  0
   -8.2289   -6.1738    0.0000 C   0  0  0  0  0  0  0  0  0  0  0  0
   -7.9171   -7.6411    0.0000 C   0  0  0  0  0  0  0  0  0  0  0  0
   -6.4905   -8.1046    0.0000 C   0  0  0  0  0  0  0  0  0  0  0  0
   -5.3758   -7.1009    0.0000 C   0  0  0  0  0  0  0  0  0  0  0  0
   -3.7701   -2.1590    0.0000 C   0  0  0  0  0  0  0  0  0  0  0  0
   -1.5000    0.0000    0.0000 N   0  0  0  0  0  0  0  0  0  0  0  0
   -0.7500   -1.2990    0.0000 N   0  0  0  0  0  0  0  0  0  0  0  0
    1.5000   -5.1962    0.0000 C   0  0  0  0  0  0  0  0  0  0  0  0
    0.7500   -6.4952    0.0000 C   0  0  0  0  0  0  0  0  0  0  0  0
    1.5000   -7.7942    0.0000 O   0  0  0  0  0  0  0  0  0  0  0  0
    0.7500   -9.0933    0.0000 C   0  0  0  0  0  0  0  0  0  0  0  0
   -0.7500   -6.4952    0.0000 C   0  0  0  0  0  0  0  0  0  0  0  0
   -1.5000   -7.7942    0.0000 O   0  0  0  0  0  0  0  0  0  0  0  0
   -3.0000   -7.7942    0.0000 C   0  0  0  0  0  0  0  0  0  0  0  0
  1  2  1  0
  2  3  1  0
  3  4  2  0
  4  5  1  0
  5  6  1  0
  6  7  1  0
  7  8  1  0
  8  9  2  0
  9 10  1  0
 10 11  2  0
 11 12  1  0
 11 13  1  0
 13 14  2  0
 14 15  1  0
 15 16  2  0
 16 17  1  0
 17 18  2  0
 18 19  1  0
 19 20  1  0
 20 21  1  0
 21 22  2  0
 22 23  1  0
 23 24  2  0
 24 25  1  0
 25 26  2  0
 19 27  2  0
 14 28  1  0
 28 29  1  0
  5 30  2  0
 30 31  1  0
 31 32  1  0
 32 33  1  0
 31 34  2  0
 34 35  1  0
 35 36  1  0
 34  3  1  0
 29  7  2  0
 28 10  1  0
 27 15  1  0
 26 21  1  0
M  END
>  <Compound_ID>  (741) 
CHEMBL519881

>  <Molecule Name>  (741) 
GW861893X

>  <Molecular Weight>  (741) 
483.53

>  <AlogP>  (741) 
5.66

>  <Smiles>  (741) 
COc1cc(Nc2ncc3c(C)nc(-c4cccc(Oc5ccccc5)c4)n3n2)cc(OC)c1OC

>  <Standard Type>  (741) 
Inhibition

>  <Standard Relation>  (741) 
'='

>  <Standard Units>  (741) 
%

>  <Standard Value>  (741) 
1.5

>  <Assay ChEMBL ID>  (741) 
CHEMBL1962240

>  <Assay Description>  (741) 
GSK_PKIS: ALK mean inhibition at 0.1 uM [Nanosyn]

>  <BAO Format ID>  (741) 
BAO_0000357

>  <BAO Label>  (741) 
single protein format

>  <Assay Organism>  (741) 
None

>  <Target ChEMBL ID>  (741) 
CHEMBL4247

>  <Target Name>  (741) 
ALK tyrosine kinase receptor

>  <Target Organism>  (741) 
Homo sapiens

>  <Target Type>  (741) 
SINGLE PROTEIN

>  <Document ChEMBL ID>  (741) 
CHEMBL1961873

>  <Source Description>  (741) 
GSK Published Kinase Inhibitor Set

>  <Document Journal>  (741) 
nan

>  <Document Year>  (741) 
nan

>  <Active>  (741) 
0.0

>  <bits>  (741) 
<rdkit.DataStructs.cDataStructs.ExplicitBitVect object at 0x000002422F1E8200>

>  <Group>  (741) 
G2

$$$$

     RDKit          2D

 22 24  0  0  0  0  0  0  0  0999 V2000
    3.7500   -1.2990    0.0000 C   0  0  0  0  0  0  0  0  0  0  0  0
    3.0000    0.0000    0.0000 O   0  0  0  0  0  0  0  0  0  0  0  0
    1.5000    0.0000    0.0000 C   0  0  0  0  0  0  0  0  0  0  0  0
    0.7500   -1.2990    0.0000 C   0  0  0  0  0  0  0  0  0  0  0  0
   -0.7500   -1.2990    0.0000 C   0  0  0  0  0  0  0  0  0  0  0  0
   -1.5000    0.0000    0.0000 C   0  0  0  0  0  0  0  0  0  0  0  0
   -0.7500    1.2990    0.0000 C   0  0  0  0  0  0  0  0  0  0  0  0
    0.7500    1.2990    0.0000 C   0  0  0  0  0  0  0  0  0  0  0  0
    1.5000    2.5981    0.0000 C   0  0  0  0  0  0  0  0  0  0  0  0
    0.8899    3.9684    0.0000 C   0  0  0  0  0  0  0  0  0  0  0  0
   -0.5773    4.2803    0.0000 N   0  0  0  0  0  0  0  0  0  0  0  0
   -1.0409    5.7068    0.0000 C   0  0  0  0  0  0  0  0  0  0  0  0
   -0.0372    6.8216    0.0000 C   0  0  0  0  0  0  0  0  0  0  0  0
   -0.5007    8.2481    0.0000 C   0  0  0  0  0  0  0  0  0  0  0  0
   -1.9679    8.5600    0.0000 C   0  0  0  0  0  0  0  0  0  0  0  0
   -2.9716    7.4453    0.0000 C   0  0  0  0  0  0  0  0  0  0  0  0
   -2.5081    6.0187    0.0000 C   0  0  0  0  0  0  0  0  0  0  0  0
    2.0046    4.9721    0.0000 C   0  0  0  0  0  0  0  0  0  0  0  0
    1.8478    6.4639    0.0000 O   0  0  0  0  0  0  0  0  0  0  0  0
    3.3037    4.2221    0.0000 N   0  0  0  0  0  0  0  0  0  0  0  0
    2.9918    2.7549    0.0000 C   0  0  0  0  0  0  0  0  0  0  0  0
    3.9955    1.6402    0.0000 O   0  0  0  0  0  0  0  0  0  0  0  0
  1  2  1  0
  2  3  1  0
  3  4  2  0
  4  5  1  0
  5  6  2  0
  6  7  1  0
  7  8  2  0
  8  9  1  0
  9 10  2  0
 10 11  1  0
 11 12  1  0
 12 13  2  0
 13 14  1  0
 14 15  2  0
 15 16  1  0
 16 17  2  0
 10 18  1  0
 18 19  2  0
 18 20  1  0
 20 21  1  0
 21 22  2  0
  8  3  1  0
 21  9  1  0
 17 12  1  0
M  END
>  <Compound_ID>  (742) 
CHEMBL156263

>  <Molecule Name>  (742) 
nan

>  <Molecular Weight>  (742) 
294.31

>  <AlogP>  (742) 
2.17

>  <Smiles>  (742) 
COc1ccccc1C1=C(Nc2ccccc2)C(=O)NC1=O

>  <Standard Type>  (742) 
Inhibition

>  <Standard Relation>  (742) 
'='

>  <Standard Units>  (742) 
%

>  <Standard Value>  (742) 
7.95

>  <Assay ChEMBL ID>  (742) 
CHEMBL1962241

>  <Assay Description>  (742) 
GSK_PKIS: ALK mean inhibition at 1 uM [Nanosyn]

>  <BAO Format ID>  (742) 
BAO_0000357

>  <BAO Label>  (742) 
single protein format

>  <Assay Organism>  (742) 
None

>  <Target ChEMBL ID>  (742) 
CHEMBL4247

>  <Target Name>  (742) 
ALK tyrosine kinase receptor

>  <Target Organism>  (742) 
Homo sapiens

>  <Target Type>  (742) 
SINGLE PROTEIN

>  <Document ChEMBL ID>  (742) 
CHEMBL1961873

>  <Source Description>  (742) 
GSK Published Kinase Inhibitor Set

>  <Document Journal>  (742) 
nan

>  <Document Year>  (742) 
nan

>  <Active>  (742) 
0.0

>  <bits>  (742) 
<rdkit.DataStructs.cDataStructs.ExplicitBitVect object at 0x000002422F1E9FC0>

>  <Group>  (742) 
G2

$$$$

     RDKit          2D

 25 29  0  0  0  0  0  0  0  0999 V2000
    3.0000    0.0000    0.0000 C   0  0  0  0  0  0  0  0  0  0  0  0
    1.5000    0.0000    0.0000 C   0  0  0  0  0  0  0  0  0  0  0  0
    0.7500   -1.2990    0.0000 C   0  0  0  0  0  0  0  0  0  0  0  0
   -0.7500   -1.2990    0.0000 C   0  0  0  0  0  0  0  0  0  0  0  0
   -1.5000    0.0000    0.0000 C   0  0  0  0  0  0  0  0  0  0  0  0
   -2.9672    0.3119    0.0000 C   0  0  0  0  0  0  0  0  0  0  0  0
   -3.1240    1.8037    0.0000 C   0  0  0  0  0  0  0  0  0  0  0  0
   -4.4231    2.5537    0.0000 C   0  0  0  0  0  0  0  0  0  0  0  0
   -4.5798    4.0454    0.0000 N   0  0  0  0  0  0  0  0  0  0  0  0
   -6.0471    4.3573    0.0000 N   0  0  0  0  0  0  0  0  0  0  0  0
   -6.7971    3.0583    0.0000 C   0  0  0  0  0  0  0  0  0  0  0  0
   -8.2643    2.7464    0.0000 C   0  0  0  0  0  0  0  0  0  0  0  0
   -8.7278    1.3198    0.0000 C   0  0  0  0  0  0  0  0  0  0  0  0
   -7.7241    0.2051    0.0000 C   0  0  0  0  0  0  0  0  0  0  0  0
   -8.1876   -1.2215    0.0000 N   0  0  0  0  0  0  0  0  0  0  0  0
   -9.6549   -1.5334    0.0000 C   0  0  0  0  0  0  0  0  0  0  0  0
  -10.2650   -2.9037    0.0000 C   0  0  0  0  0  0  0  0  0  0  0  0
  -11.7568   -2.7469    0.0000 C   0  0  0  0  0  0  0  0  0  0  0  0
  -12.0686   -1.2797    0.0000 N   0  0  0  0  0  0  0  0  0  0  0  0
  -10.7696   -0.5297    0.0000 C   0  0  0  0  0  0  0  0  0  0  0  0
   -6.2569    0.5170    0.0000 C   0  0  0  0  0  0  0  0  0  0  0  0
   -5.7934    1.9435    0.0000 C   0  0  0  0  0  0  0  0  0  0  0  0
   -1.7537    2.4138    0.0000 N   0  0  0  0  0  0  0  0  0  0  0  0
   -0.7500    1.2990    0.0000 C   0  0  0  0  0  0  0  0  0  0  0  0
    0.7500    1.2990    0.0000 C   0  0  0  0  0  0  0  0  0  0  0  0
  1  2  1  0
  2  3  2  0
  3  4  1  0
  4  5  2  0
  5  6  1  0
  6  7  2  0
  7  8  1  0
  8  9  2  0
  9 10  1  0
 10 11  1  0
 11 12  2  0
 12 13  1  0
 13 14  2  0
 14 15  1  0
 15 16  1  0
 16 17  1  0
 17 18  1  0
 18 19  1  0
 19 20  1  0
 14 21  1  0
 21 22  2  0
  7 23  1  0
 23 24  1  0
 24 25  2  0
 25  2  1  0
 24  5  1  0
 22  8  1  0
 22 11  1  0
 20 16  1  0
M  END
>  <Compound_ID>  (743) 
CHEMBL1684654

>  <Molecule Name>  (743) 
nan

>  <Molecular Weight>  (743) 
331.42

>  <AlogP>  (743) 
3.79

>  <Smiles>  (743) 
Cc1ccc2cc(-c3n[nH]c4ccc(NC5CCNC5)cc34)[nH]c2c1

>  <Standard Type>  (743) 
Inhibition

>  <Standard Relation>  (743) 
'='

>  <Standard Units>  (743) 
%

>  <Standard Value>  (743) 
5.0

>  <Assay ChEMBL ID>  (743) 
CHEMBL1685885

>  <Assay Description>  (743) 
Inhibition of ALK at 1 uM

>  <BAO Format ID>  (743) 
BAO_0000357

>  <BAO Label>  (743) 
single protein format

>  <Assay Organism>  (743) 
None

>  <Target ChEMBL ID>  (743) 
CHEMBL4247

>  <Target Name>  (743) 
ALK tyrosine kinase receptor

>  <Target Organism>  (743) 
Homo sapiens

>  <Target Type>  (743) 
SINGLE PROTEIN

>  <Document ChEMBL ID>  (743) 
CHEMBL1681705

>  <Source Description>  (743) 
Scientific Literature

>  <Document Journal>  (743) 
Bioorg Med Chem Lett

>  <Document Year>  (743) 
2011.0

>  <Active>  (743) 
0.0

>  <bits>  (743) 
<rdkit.DataStructs.cDataStructs.ExplicitBitVect object at 0x000002422F1E8D60>

>  <Group>  (743) 
G2

$$$$

     RDKit          2D

 30 33  0  0  0  0  0  0  0  0999 V2000
   -3.7500    1.2990    0.0000 C   0  0  0  0  0  0  0  0  0  0  0  0
   -3.0000    0.0000    0.0000 O   0  0  0  0  0  0  0  0  0  0  0  0
   -3.7500   -1.2990    0.0000 C   0  0  0  0  0  0  0  0  0  0  0  0
   -3.0000   -2.5981    0.0000 C   0  0  0  0  0  0  0  0  0  0  0  0
   -3.7500   -3.8971    0.0000 C   0  0  0  0  0  0  0  0  0  0  0  0
   -3.0000   -5.1962    0.0000 N   0  0  0  0  0  0  0  0  0  0  0  0
   -1.5000   -5.1962    0.0000 C   0  0  0  0  0  0  0  0  0  0  0  0
   -0.7500   -6.4952    0.0000 N   0  0  0  0  0  0  0  0  0  0  0  0
    0.7500   -6.4952    0.0000 C   0  0  0  0  0  0  0  0  0  0  0  0
    1.5000   -5.1962    0.0000 C   0  0  0  0  0  0  0  0  0  0  0  0
    0.7500   -3.8971    0.0000 C   0  0  0  0  0  0  0  0  0  0  0  0
    1.5000   -2.5981    0.0000 N   0  0  0  0  0  0  0  0  0  0  0  0
    0.7500   -1.2990    0.0000 C   0  0  0  0  0  0  0  0  0  0  0  0
   -0.7500   -1.2990    0.0000 C   0  0  0  0  0  0  0  0  0  0  0  0
   -1.5000   -0.0000    0.0000 C   0  0  0  0  0  0  0  0  0  0  0  0
   -0.7500    1.2990    0.0000 C   0  0  0  0  0  0  0  0  0  0  0  0
   -1.2135    2.7256    0.0000 C   0  0  0  0  0  0  0  0  0  0  0  0
   -2.6401    3.1891    0.0000 C   0  0  0  0  0  0  0  0  0  0  0  0
   -0.0000    3.6073    0.0000 N   0  0  0  0  0  0  0  0  0  0  0  0
    1.2135    2.7256    0.0000 N   0  0  0  0  0  0  0  0  0  0  0  0
    0.7500    1.2990    0.0000 C   0  0  0  0  0  0  0  0  0  0  0  0
    1.5000   -0.0000    0.0000 C   0  0  0  0  0  0  0  0  0  0  0  0
   -0.7500   -3.8971    0.0000 N   0  0  0  0  0  0  0  0  0  0  0  0
   -5.2500   -3.8971    0.0000 C   0  0  0  0  0  0  0  0  0  0  0  0
   -6.0000   -2.5981    0.0000 C   0  0  0  0  0  0  0  0  0  0  0  0
   -7.5000   -2.5981    0.0000 O   0  0  0  0  0  0  0  0  0  0  0  0
   -8.2500   -1.2990    0.0000 C   0  0  0  0  0  0  0  0  0  0  0  0
   -5.2500   -1.2990    0.0000 C   0  0  0  0  0  0  0  0  0  0  0  0
   -6.0000    0.0000    0.0000 O   0  0  0  0  0  0  0  0  0  0  0  0
   -7.5000    0.0000    0.0000 C   0  0  0  0  0  0  0  0  0  0  0  0
  1  2  1  0
  2  3  1  0
  3  4  2  0
  4  5  1  0
  5  6  1  0
  6  7  1  0
  7  8  2  0
  8  9  1  0
  9 10  2  0
 10 11  1  0
 11 12  1  0
 12 13  1  0
 13 14  2  0
 14 15  1  0
 15 16  2  0
 16 17  1  0
 17 18  1  0
 17 19  2  0
 19 20  1  0
 20 21  1  0
 21 22  2  0
 11 23  2  0
  5 24  2  0
 24 25  1  0
 25 26  1  0
 26 27  1  0
 25 28  2  0
 28 29  1  0
 29 30  1  0
 28  3  1  0
 23  7  1  0
 22 13  1  0
 21 16  1  0
M  END
>  <Compound_ID>  (744) 
CHEMBL479079

>  <Molecule Name>  (744) 
GW612286X

>  <Molecular Weight>  (744) 
406.45

>  <AlogP>  (744) 
4.17

>  <Smiles>  (744) 
COc1cc(Nc2nccc(Nc3ccc4c(C)n[nH]c4c3)n2)cc(OC)c1OC

>  <Standard Type>  (744) 
Inhibition

>  <Standard Relation>  (744) 
'='

>  <Standard Units>  (744) 
%

>  <Standard Value>  (744) 
5.55

>  <Assay ChEMBL ID>  (744) 
CHEMBL1962240

>  <Assay Description>  (744) 
GSK_PKIS: ALK mean inhibition at 0.1 uM [Nanosyn]

>  <BAO Format ID>  (744) 
BAO_0000357

>  <BAO Label>  (744) 
single protein format

>  <Assay Organism>  (744) 
None

>  <Target ChEMBL ID>  (744) 
CHEMBL4247

>  <Target Name>  (744) 
ALK tyrosine kinase receptor

>  <Target Organism>  (744) 
Homo sapiens

>  <Target Type>  (744) 
SINGLE PROTEIN

>  <Document ChEMBL ID>  (744) 
CHEMBL1961873

>  <Source Description>  (744) 
GSK Published Kinase Inhibitor Set

>  <Document Journal>  (744) 
nan

>  <Document Year>  (744) 
nan

>  <Active>  (744) 
0.0

>  <bits>  (744) 
<rdkit.DataStructs.cDataStructs.ExplicitBitVect object at 0x000002422F1E9A80>

>  <Group>  (744) 
G2

$$$$

     RDKit          2D

 29 31  0  0  0  0  0  0  0  0999 V2000
    6.0000    2.5981    0.0000 C   0  0  0  0  0  0  0  0  0  0  0  0
    6.7500    1.2990    0.0000 N   0  0  0  0  0  0  0  0  0  0  0  0
    6.0000   -0.0000    0.0000 S   0  0  0  0  0  0  0  0  0  0  0  0
    7.2990   -0.7500    0.0000 O   0  0  0  0  0  0  0  0  0  0  0  0
    4.7010    0.7500    0.0000 O   0  0  0  0  0  0  0  0  0  0  0  0
    5.2500   -1.2990    0.0000 C   0  0  0  0  0  0  0  0  0  0  0  0
    6.0000   -2.5981    0.0000 C   0  0  0  0  0  0  0  0  0  0  0  0
    5.2500   -3.8971    0.0000 C   0  0  0  0  0  0  0  0  0  0  0  0
    3.7500   -3.8971    0.0000 C   0  0  0  0  0  0  0  0  0  0  0  0
    3.0000   -5.1962    0.0000 N   0  0  0  0  0  0  0  0  0  0  0  0
    3.7500   -6.4952    0.0000 C   0  0  0  0  0  0  0  0  0  0  0  0
    1.5000   -5.1962    0.0000 C   0  0  0  0  0  0  0  0  0  0  0  0
    3.0000   -2.5981    0.0000 C   0  0  0  0  0  0  0  0  0  0  0  0
    1.5000   -2.5981    0.0000 N   0  0  0  0  0  0  0  0  0  0  0  0
    0.7500   -1.2990    0.0000 C   0  0  0  0  0  0  0  0  0  0  0  0
    1.5000    0.0000    0.0000 N   0  0  0  0  0  0  0  0  0  0  0  0
    0.7500    1.2990    0.0000 C   0  0  0  0  0  0  0  0  0  0  0  0
   -0.7500    1.2990    0.0000 N   0  0  0  0  0  0  0  0  0  0  0  0
   -1.5000    0.0000    0.0000 C   0  0  0  0  0  0  0  0  0  0  0  0
   -3.0000    0.0000    0.0000 C   0  0  0  0  0  0  0  0  0  0  0  0
   -3.7500   -1.2990    0.0000 C   0  0  0  0  0  0  0  0  0  0  0  0
   -5.2500   -1.2990    0.0000 O   0  0  0  0  0  0  0  0  0  0  0  0
   -6.0000    0.0000    0.0000 C   0  0  0  0  0  0  0  0  0  0  0  0
   -3.0000   -2.5981    0.0000 C   0  0  0  0  0  0  0  0  0  0  0  0
   -3.7500   -3.8971    0.0000 O   0  0  0  0  0  0  0  0  0  0  0  0
   -5.2500   -3.8971    0.0000 C   0  0  0  0  0  0  0  0  0  0  0  0
   -1.5000   -2.5981    0.0000 C   0  0  0  0  0  0  0  0  0  0  0  0
   -0.7500   -1.2990    0.0000 C   0  0  0  0  0  0  0  0  0  0  0  0
    3.7500   -1.2990    0.0000 C   0  0  0  0  0  0  0  0  0  0  0  0
  1  2  1  0
  2  3  1  0
  3  4  2  0
  3  5  2  0
  3  6  1  0
  6  7  2  0
  7  8  1  0
  8  9  2  0
  9 10  1  0
 10 11  1  0
 10 12  1  0
  9 13  1  0
 13 14  1  0
 14 15  1  0
 15 16  2  0
 16 17  1  0
 17 18  2  0
 18 19  1  0
 19 20  2  0
 20 21  1  0
 21 22  1  0
 22 23  1  0
 21 24  2  0
 24 25  1  0
 25 26  1  0
 24 27  1  0
 27 28  2  0
 13 29  2  0
 29  6  1  0
 28 15  1  0
 28 19  1  0
M  END
>  <Compound_ID>  (745) 
CHEMBL3815093

>  <Molecule Name>  (745) 
nan

>  <Molecular Weight>  (745) 
417.49

>  <AlogP>  (745) 
2.36

>  <Smiles>  (745) 
CNS(=O)(=O)c1ccc(N(C)C)c(Nc2ncnc3cc(OC)c(OC)cc23)c1

>  <Standard Type>  (745) 
Inhibition

>  <Standard Relation>  (745) 
'='

>  <Standard Units>  (745) 
%

>  <Standard Value>  (745) 
-8.0

>  <Assay ChEMBL ID>  (745) 
CHEMBL3816557

>  <Assay Description>  (745) 
Inhibition of human ALK at 1 uM using poly[Glu:Tyr] (4:1) as substrate

>  <BAO Format ID>  (745) 
BAO_0000357

>  <BAO Label>  (745) 
single protein format

>  <Assay Organism>  (745) 
Homo sapiens

>  <Target ChEMBL ID>  (745) 
CHEMBL4247

>  <Target Name>  (745) 
ALK tyrosine kinase receptor

>  <Target Organism>  (745) 
Homo sapiens

>  <Target Type>  (745) 
SINGLE PROTEIN

>  <Document ChEMBL ID>  (745) 
CHEMBL3813650

>  <Source Description>  (745) 
Scientific Literature

>  <Document Journal>  (745) 
Bioorg Med Chem Lett

>  <Document Year>  (745) 
2016.0

>  <Active>  (745) 
0.0

>  <bits>  (745) 
<rdkit.DataStructs.cDataStructs.ExplicitBitVect object at 0x000002422F1E93F0>

>  <Group>  (745) 
G2

$$$$

     RDKit          2D

 34 37  0  0  0  0  0  0  0  0999 V2000
   -2.9520   -4.6564    0.0000 C   0  0  0  0  0  0  0  0  0  0  0  0
   -2.6401   -3.1891    0.0000 C   0  0  0  0  0  0  0  0  0  0  0  0
   -3.7548   -2.1855    0.0000 C   0  0  0  0  0  0  0  0  0  0  0  0
   -1.2135   -2.7256    0.0000 N   0  0  0  0  0  0  0  0  0  0  0  0
   -0.0000   -3.6073    0.0000 N   0  0  0  0  0  0  0  0  0  0  0  0
    1.2135   -2.7256    0.0000 C   0  0  0  0  0  0  0  0  0  0  0  0
    2.6401   -3.1891    0.0000 C   0  0  0  0  0  0  0  0  0  0  0  0
    4.0667   -3.6527    0.0000 C   0  0  0  0  0  0  0  0  0  0  0  0
    5.4933   -4.1162    0.0000 C   0  0  0  0  0  0  0  0  0  0  0  0
    5.8051   -5.5834    0.0000 C   0  0  0  0  0  0  0  0  0  0  0  0
    7.2317   -6.0469    0.0000 C   0  0  0  0  0  0  0  0  0  0  0  0
    8.3464   -5.0433    0.0000 C   0  0  0  0  0  0  0  0  0  0  0  0
    8.0346   -3.5760    0.0000 C   0  0  0  0  0  0  0  0  0  0  0  0
    9.1493   -2.5723    0.0000 N   0  0  0  0  0  0  0  0  0  0  0  0
   10.5759   -3.0359    0.0000 C   0  0  0  0  0  0  0  0  0  0  0  0
   10.8878   -4.5031    0.0000 O   0  0  0  0  0  0  0  0  0  0  0  0
   11.6906   -2.0322    0.0000 C   0  0  0  0  0  0  0  0  0  0  0  0
   13.1172   -2.4957    0.0000 C   0  0  0  0  0  0  0  0  0  0  0  0
   14.2319   -1.4920    0.0000 C   0  0  0  0  0  0  0  0  0  0  0  0
   13.9200   -0.0248    0.0000 C   0  0  0  0  0  0  0  0  0  0  0  0
   12.4935    0.4388    0.0000 C   0  0  0  0  0  0  0  0  0  0  0  0
   12.1816    1.9060    0.0000 C   0  0  0  0  0  0  0  0  0  0  0  0
   11.8697    3.3732    0.0000 F   0  0  0  0  0  0  0  0  0  0  0  0
   13.6488    2.2178    0.0000 F   0  0  0  0  0  0  0  0  0  0  0  0
   10.7144    1.5941    0.0000 F   0  0  0  0  0  0  0  0  0  0  0  0
   11.3787   -0.5649    0.0000 C   0  0  0  0  0  0  0  0  0  0  0  0
    6.6080   -3.1125    0.0000 C   0  0  0  0  0  0  0  0  0  0  0  0
    0.7500   -1.2990    0.0000 C   0  0  0  0  0  0  0  0  0  0  0  0
    1.5000    0.0000    0.0000 C   0  0  0  0  0  0  0  0  0  0  0  0
    3.0000    0.0000    0.0000 N   0  0  0  0  0  0  0  0  0  0  0  0
    0.7500    1.2990    0.0000 N   0  0  0  0  0  0  0  0  0  0  0  0
   -0.7500    1.2990    0.0000 C   0  0  0  0  0  0  0  0  0  0  0  0
   -1.5000    0.0000    0.0000 N   0  0  0  0  0  0  0  0  0  0  0  0
   -0.7500   -1.2990    0.0000 C   0  0  0  0  0  0  0  0  0  0  0  0
  1  2  1  0
  2  3  1  0
  2  4  1  0
  4  5  1  0
  5  6  2  0
  6  7  1  0
  7  8  3  0
  8  9  1  0
  9 10  2  0
 10 11  1  0
 11 12  2  0
 12 13  1  0
 13 14  1  0
 14 15  1  0
 15 16  2  0
 15 17  1  0
 17 18  2  0
 18 19  1  0
 19 20  2  0
 20 21  1  0
 21 22  1  0
 22 23  1  0
 22 24  1  0
 22 25  1  0
 21 26  2  0
 13 27  2  0
  6 28  1  0
 28 29  2  0
 29 30  1  0
 29 31  1  0
 31 32  2  0
 32 33  1  0
 33 34  2  0
 34  4  1  0
 27  9  1  0
 34 28  1  0
 26 17  1  0
M  END
>  <Compound_ID>  (746) 
CHEMBL3736320

>  <Molecule Name>  (746) 
nan

>  <Molecular Weight>  (746) 
464.45

>  <AlogP>  (746) 
4.66

>  <Smiles>  (746) 
CC(C)n1nc(C#Cc2cccc(NC(=O)c3cccc(C(F)(F)F)c3)c2)c2c(N)ncnc21

>  <Standard Type>  (746) 
Inhibition

>  <Standard Relation>  (746) 
'='

>  <Standard Units>  (746) 
%

>  <Standard Value>  (746) 
6.0

>  <Assay ChEMBL ID>  (746) 
CHEMBL4230017

>  <Assay Description>  (746) 
Inhibition of ALK (unknown origin) at 1 uM by mobility shift microfluidics platform based assay relative to control

>  <BAO Format ID>  (746) 
BAO_0000357

>  <BAO Label>  (746) 
single protein format

>  <Assay Organism>  (746) 
Homo sapiens

>  <Target ChEMBL ID>  (746) 
CHEMBL4247

>  <Target Name>  (746) 
ALK tyrosine kinase receptor

>  <Target Organism>  (746) 
Homo sapiens

>  <Target Type>  (746) 
SINGLE PROTEIN

>  <Document ChEMBL ID>  (746) 
CHEMBL4229333

>  <Source Description>  (746) 
Scientific Literature

>  <Document Journal>  (746) 
Eur J Med Chem

>  <Document Year>  (746) 
2018.0

>  <Active>  (746) 
0.0

>  <bits>  (746) 
<rdkit.DataStructs.cDataStructs.ExplicitBitVect object at 0x000002422F1E91C0>

>  <Group>  (746) 
G2

$$$$

     RDKit          2D

 28 31  0  0  0  0  0  0  0  0999 V2000
    3.5260    1.2990    0.0000 C   0  0  0  0  0  0  0  0  0  0  0  0
    2.7760    0.0000    0.0000 C   0  0  0  0  0  0  0  0  0  0  0  0
    3.5260   -1.2990    0.0000 C   0  0  0  0  0  0  0  0  0  0  0  0
    1.2760    0.0000    0.0000 N   0  0  0  0  0  0  0  0  0  0  0  0
    0.3943    1.2135    0.0000 C   0  0  0  0  0  0  0  0  0  0  0  0
   -1.0323    0.7500    0.0000 N   0  0  0  0  0  0  0  0  0  0  0  0
   -1.0323   -0.7500    0.0000 C   0  0  0  0  0  0  0  0  0  0  0  0
   -2.1470   -1.7537    0.0000 C   0  0  0  0  0  0  0  0  0  0  0  0
   -3.5736   -1.2902    0.0000 N   0  0  0  0  0  0  0  0  0  0  0  0
   -4.6883   -2.2939    0.0000 C   0  0  0  0  0  0  0  0  0  0  0  0
   -6.1149   -1.8303    0.0000 C   0  0  0  0  0  0  0  0  0  0  0  0
   -7.2296   -2.8340    0.0000 C   0  0  0  0  0  0  0  0  0  0  0  0
   -6.9177   -4.3013    0.0000 C   0  0  0  0  0  0  0  0  0  0  0  0
   -5.4912   -4.7648    0.0000 C   0  0  0  0  0  0  0  0  0  0  0  0
   -5.1793   -6.2320    0.0000 Cl  0  0  0  0  0  0  0  0  0  0  0  0
   -4.3764   -3.7611    0.0000 C   0  0  0  0  0  0  0  0  0  0  0  0
   -1.8351   -3.2209    0.0000 N   0  0  0  0  0  0  0  0  0  0  0  0
   -0.4086   -3.6844    0.0000 C   0  0  0  0  0  0  0  0  0  0  0  0
   -0.0967   -5.1517    0.0000 N   0  0  0  0  0  0  0  0  0  0  0  0
   -1.2114   -6.1554    0.0000 C   0  0  0  0  0  0  0  0  0  0  0  0
   -2.6380   -5.6918    0.0000 C   0  0  0  0  0  0  0  0  0  0  0  0
   -3.7527   -6.6955    0.0000 C   0  0  0  0  0  0  0  0  0  0  0  0
   -3.4408   -8.1628    0.0000 C   0  0  0  0  0  0  0  0  0  0  0  0
   -2.0143   -8.6263    0.0000 C   0  0  0  0  0  0  0  0  0  0  0  0
   -0.8995   -7.6226    0.0000 C   0  0  0  0  0  0  0  0  0  0  0  0
    0.5271   -8.0861    0.0000 N   0  0  0  0  0  0  0  0  0  0  0  0
    0.7062   -2.6807    0.0000 N   0  0  0  0  0  0  0  0  0  0  0  0
    0.3943   -1.2135    0.0000 C   0  0  0  0  0  0  0  0  0  0  0  0
  1  2  1  0
  2  3  1  0
  2  4  1  0
  4  5  1  0
  5  6  2  0
  6  7  1  0
  7  8  2  0
  8  9  1  0
  9 10  1  0
 10 11  2  0
 11 12  1  0
 12 13  2  0
 13 14  1  0
 14 15  1  0
 14 16  2  0
  8 17  1  0
 17 18  2  0
 18 19  1  0
 20 19  1  1
 20 21  1  0
 21 22  1  0
 22 23  1  0
 23 24  1  0
 24 25  1  0
 25 26  1  1
 18 27  1  0
 27 28  2  0
 28  4  1  0
 28  7  1  0
 16 10  1  0
 25 20  1  0
M  END
>  <Compound_ID>  (747) 
CHEMBL4066861

>  <Molecule Name>  (747) 
nan

>  <Molecular Weight>  (747) 
399.93

>  <AlogP>  (747) 
4.49

>  <Smiles>  (747) 
CC(C)n1cnc2c(Nc3cccc(Cl)c3)nc(N[C@@H]3CCCC[C@@H]3N)nc21

>  <Standard Type>  (747) 
Inhibition

>  <Standard Relation>  (747) 
'='

>  <Standard Units>  (747) 
%

>  <Standard Value>  (747) 
-2.0

>  <Assay ChEMBL ID>  (747) 
CHEMBL4003777

>  <Assay Description>  (747) 
Inhibition of human ALK using casein as substrate in presence of [gamma-33P]ATP at 1 uM after 40 mins by scintillation counter method

>  <BAO Format ID>  (747) 
BAO_0000357

>  <BAO Label>  (747) 
single protein format

>  <Assay Organism>  (747) 
Homo sapiens

>  <Target ChEMBL ID>  (747) 
CHEMBL4247

>  <Target Name>  (747) 
ALK tyrosine kinase receptor

>  <Target Organism>  (747) 
Homo sapiens

>  <Target Type>  (747) 
SINGLE PROTEIN

>  <Document ChEMBL ID>  (747) 
CHEMBL4002601

>  <Source Description>  (747) 
Scientific Literature

>  <Document Journal>  (747) 
Bioorg Med Chem Lett

>  <Document Year>  (747) 
2017.0

>  <Active>  (747) 
0.0

>  <bits>  (747) 
<rdkit.DataStructs.cDataStructs.ExplicitBitVect object at 0x000002422F1E9230>

>  <Group>  (747) 
G2

$$$$

     RDKit          2D

 39 42  0  0  0  0  0  0  0  0999 V2000
   -6.1170   -7.0506    0.0000 C   0  0  0  0  0  0  0  0  0  0  0  0
   -4.6904   -6.5871    0.0000 O   0  0  0  0  0  0  0  0  0  0  0  0
   -4.3786   -5.1199    0.0000 C   0  0  0  0  0  0  0  0  0  0  0  0
   -5.4933   -4.1162    0.0000 C   0  0  0  0  0  0  0  0  0  0  0  0
   -5.1814   -2.6490    0.0000 C   0  0  0  0  0  0  0  0  0  0  0  0
   -6.2961   -1.6453    0.0000 O   0  0  0  0  0  0  0  0  0  0  0  0
   -7.7227   -2.1088    0.0000 C   0  0  0  0  0  0  0  0  0  0  0  0
   -3.7548   -2.1855    0.0000 C   0  0  0  0  0  0  0  0  0  0  0  0
   -2.6401   -3.1891    0.0000 C   0  0  0  0  0  0  0  0  0  0  0  0
   -1.2135   -2.7256    0.0000 C   0  0  0  0  0  0  0  0  0  0  0  0
   -0.0000   -3.6073    0.0000 N   0  0  0  0  0  0  0  0  0  0  0  0
    1.2135   -2.7256    0.0000 N   0  0  0  0  0  0  0  0  0  0  0  0
    2.6401   -3.1891    0.0000 C   0  0  0  0  0  0  0  0  0  0  0  0
    2.9520   -4.6564    0.0000 C   0  0  0  0  0  0  0  0  0  0  0  0
    4.3786   -5.1199    0.0000 C   0  0  0  0  0  0  0  0  0  0  0  0
    4.6904   -6.5871    0.0000 C   0  0  0  0  0  0  0  0  0  0  0  0
    6.1170   -7.0506    0.0000 C   0  0  0  0  0  0  0  0  0  0  0  0
    6.4289   -8.5179    0.0000 N   0  0  0  0  0  0  0  0  0  0  0  0
    5.3142   -9.5216    0.0000 C   0  0  0  0  0  0  0  0  0  0  0  0
    5.6260  -10.9888    0.0000 C   0  0  0  0  0  0  0  0  0  0  0  0
    7.0526  -11.4523    0.0000 N   0  0  0  0  0  0  0  0  0  0  0  0
    7.3645  -12.9195    0.0000 C   0  0  0  0  0  0  0  0  0  0  0  0
    8.7911  -13.3831    0.0000 O   0  0  0  0  0  0  0  0  0  0  0  0
    6.2498  -13.9232    0.0000 C   0  0  0  0  0  0  0  0  0  0  0  0
    6.5616  -15.3904    0.0000 C   0  0  0  0  0  0  0  0  0  0  0  0
    5.4469  -16.3941    0.0000 C   0  0  0  0  0  0  0  0  0  0  0  0
    4.3322  -17.3978    0.0000 F   0  0  0  0  0  0  0  0  0  0  0  0
    6.4506  -17.5089    0.0000 F   0  0  0  0  0  0  0  0  0  0  0  0
    4.4432  -15.2794    0.0000 F   0  0  0  0  0  0  0  0  0  0  0  0
    8.1673  -10.4486    0.0000 C   0  0  0  0  0  0  0  0  0  0  0  0
    7.8555   -8.9814    0.0000 C   0  0  0  0  0  0  0  0  0  0  0  0
    0.7500   -1.2990    0.0000 C   0  0  0  0  0  0  0  0  0  0  0  0
    1.5000    0.0000    0.0000 N   0  0  0  0  0  0  0  0  0  0  0  0
    0.7500    1.2990    0.0000 C   0  0  0  0  0  0  0  0  0  0  0  0
   -0.7500    1.2990    0.0000 N   0  0  0  0  0  0  0  0  0  0  0  0
   -1.5000    0.0000    0.0000 C   0  0  0  0  0  0  0  0  0  0  0  0
   -3.0000    0.0000    0.0000 N   0  0  0  0  0  0  0  0  0  0  0  0
   -0.7500   -1.2990    0.0000 C   0  0  0  0  0  0  0  0  0  0  0  0
   -2.9520   -4.6564    0.0000 C   0  0  0  0  0  0  0  0  0  0  0  0
  1  2  1  0
  2  3  1  0
  3  4  2  0
  4  5  1  0
  5  6  1  0
  6  7  1  0
  5  8  2  0
  8  9  1  0
  9 10  1  0
 10 11  2  0
 11 12  1  0
 12 13  1  0
 13 14  1  0
 14 15  1  0
 15 16  1  0
 16 17  1  0
 17 18  1  0
 18 19  1  0
 19 20  1  0
 20 21  1  0
 21 22  1  0
 22 23  2  0
 22 24  1  0
 24 25  2  0
 25 26  1  0
 26 27  1  0
 26 28  1  0
 26 29  1  0
 21 30  1  0
 30 31  1  0
 12 32  1  0
 32 33  2  0
 33 34  1  0
 34 35  2  0
 35 36  1  0
 36 37  1  0
 36 38  2  0
  9 39  2  0
 39  3  1  0
 38 10  1  0
 31 18  1  0
 38 32  1  0
M  END
>  <Compound_ID>  (748) 
CHEMBL5088737

>  <Molecule Name>  (748) 
nan

>  <Molecular Weight>  (748) 
547.58

>  <AlogP>  (748) 
3.53

>  <Smiles>  (748) 
COc1cc(OC)cc(-c2nn(CCCCCN3CCN(C(=O)/C=C/C(F)(F)F)CC3)c3ncnc(N)c23)c1

>  <Standard Type>  (748) 
Inhibition

>  <Standard Relation>  (748) 
'='

>  <Standard Units>  (748) 
%

>  <Standard Value>  (748) 
0.0

>  <Assay ChEMBL ID>  (748) 
CHEMBL5033070

>  <Assay Description>  (748) 
Inhibition of ALK (unknown origin) at 1000 nM relative to control

>  <BAO Format ID>  (748) 
BAO_0000357

>  <BAO Label>  (748) 
single protein format

>  <Assay Organism>  (748) 
Homo sapiens

>  <Target ChEMBL ID>  (748) 
CHEMBL4247

>  <Target Name>  (748) 
ALK tyrosine kinase receptor

>  <Target Organism>  (748) 
Homo sapiens

>  <Target Type>  (748) 
SINGLE PROTEIN

>  <Document ChEMBL ID>  (748) 
CHEMBL5032504

>  <Source Description>  (748) 
Scientific Literature

>  <Document Journal>  (748) 
J Med Chem

>  <Document Year>  (748) 
2021.0

>  <Active>  (748) 
0.0

>  <bits>  (748) 
<rdkit.DataStructs.cDataStructs.ExplicitBitVect object at 0x000002422F1E9460>

>  <Group>  (748) 
G2

$$$$

     RDKit          2D

 32 36  0  0  0  0  0  0  0  0999 V2000
    3.0000    0.0000    0.0000 C   0  0  0  0  0  0  0  0  0  0  0  0
    1.5000    0.0000    0.0000 N   0  0  0  0  0  0  0  0  0  0  0  0
    0.7500   -1.2990    0.0000 C   0  0  0  0  0  0  0  0  0  0  0  0
   -0.7500   -1.2990    0.0000 C   0  0  0  0  0  0  0  0  0  0  0  0
   -1.5000    0.0000    0.0000 C   0  0  0  0  0  0  0  0  0  0  0  0
   -3.0000    0.0000    0.0000 N   0  0  0  0  0  0  0  0  0  0  0  0
   -3.8817   -1.2135    0.0000 C   0  0  0  0  0  0  0  0  0  0  0  0
   -5.3083   -0.7500    0.0000 N   0  0  0  0  0  0  0  0  0  0  0  0
   -5.3083    0.7500    0.0000 C   0  0  0  0  0  0  0  0  0  0  0  0
   -6.5218    1.6317    0.0000 C   0  0  0  0  0  0  0  0  0  0  0  0
   -6.3650    3.1235    0.0000 C   0  0  0  0  0  0  0  0  0  0  0  0
   -7.5785    4.0051    0.0000 C   0  0  0  0  0  0  0  0  0  0  0  0
   -8.9488    3.3950    0.0000 C   0  0  0  0  0  0  0  0  0  0  0  0
  -10.1624    4.2767    0.0000 F   0  0  0  0  0  0  0  0  0  0  0  0
   -9.1056    1.9033    0.0000 C   0  0  0  0  0  0  0  0  0  0  0  0
   -7.8921    1.0216    0.0000 C   0  0  0  0  0  0  0  0  0  0  0  0
   -3.8817    1.2135    0.0000 C   0  0  0  0  0  0  0  0  0  0  0  0
   -3.4182    2.6401    0.0000 C   0  0  0  0  0  0  0  0  0  0  0  0
   -1.9509    2.9520    0.0000 C   0  0  0  0  0  0  0  0  0  0  0  0
   -1.4874    4.3786    0.0000 C   0  0  0  0  0  0  0  0  0  0  0  0
   -2.4911    5.4933    0.0000 N   0  0  0  0  0  0  0  0  0  0  0  0
   -3.9583    5.1814    0.0000 C   0  0  0  0  0  0  0  0  0  0  0  0
   -4.9620    6.2961    0.0000 N   0  0  0  0  0  0  0  0  0  0  0  0
   -4.4985    7.7227    0.0000 C   0  0  0  0  0  0  0  0  0  0  0  0
   -3.0313    8.0346    0.0000 C   0  0  0  0  0  0  0  0  0  0  0  0
   -2.5677    9.4612    0.0000 C   0  0  0  0  0  0  0  0  0  0  0  0
   -3.5714   10.5759    0.0000 C   0  0  0  0  0  0  0  0  0  0  0  0
   -5.0387   10.2640    0.0000 C   0  0  0  0  0  0  0  0  0  0  0  0
   -5.5022    8.8374    0.0000 C   0  0  0  0  0  0  0  0  0  0  0  0
   -4.4218    3.7548    0.0000 N   0  0  0  0  0  0  0  0  0  0  0  0
   -0.7500    1.2990    0.0000 C   0  0  0  0  0  0  0  0  0  0  0  0
    0.7500    1.2990    0.0000 C   0  0  0  0  0  0  0  0  0  0  0  0
  1  2  1  0
  2  3  1  0
  3  4  1  0
  4  5  1  0
  5  6  1  0
  6  7  1  0
  7  8  2  0
  8  9  1  0
  9 10  1  0
 10 11  2  0
 11 12  1  0
 12 13  2  0
 13 14  1  0
 13 15  1  0
 15 16  2  0
  9 17  2  0
 17 18  1  0
 18 19  2  0
 19 20  1  0
 20 21  2  0
 21 22  1  0
 22 23  1  0
 23 24  1  0
 24 25  2  0
 25 26  1  0
 26 27  2  0
 27 28  1  0
 28 29  2  0
 22 30  2  0
  5 31  1  0
 31 32  1  0
 32  2  1  0
 17  6  1  0
 30 18  1  0
 16 10  1  0
 29 24  1  0
M  END
>  <Compound_ID>  (749) 
CHEMBL318892

>  <Molecule Name>  (749) 
nan

>  <Molecular Weight>  (749) 
428.52

>  <AlogP>  (749) 
5.16

>  <Smiles>  (749) 
CN1CCC(n2cnc(-c3ccc(F)cc3)c2-c2ccnc(Nc3ccccc3)n2)CC1

>  <Standard Type>  (749) 
Inhibition

>  <Standard Relation>  (749) 
'='

>  <Standard Units>  (749) 
%

>  <Standard Value>  (749) 
2.39

>  <Assay ChEMBL ID>  (749) 
CHEMBL1962241

>  <Assay Description>  (749) 
GSK_PKIS: ALK mean inhibition at 1 uM [Nanosyn]

>  <BAO Format ID>  (749) 
BAO_0000357

>  <BAO Label>  (749) 
single protein format

>  <Assay Organism>  (749) 
None

>  <Target ChEMBL ID>  (749) 
CHEMBL4247

>  <Target Name>  (749) 
ALK tyrosine kinase receptor

>  <Target Organism>  (749) 
Homo sapiens

>  <Target Type>  (749) 
SINGLE PROTEIN

>  <Document ChEMBL ID>  (749) 
CHEMBL1961873

>  <Source Description>  (749) 
GSK Published Kinase Inhibitor Set

>  <Document Journal>  (749) 
nan

>  <Document Year>  (749) 
nan

>  <Active>  (749) 
0.0

>  <bits>  (749) 
<rdkit.DataStructs.cDataStructs.ExplicitBitVect object at 0x000002422F1E9C40>

>  <Group>  (749) 
G2

$$$$

     RDKit          2D

 21 23  0  0  0  0  0  0  0  0999 V2000
    3.0000    0.0000    0.0000 Cl  0  0  0  0  0  0  0  0  0  0  0  0
    1.5000    0.0000    0.0000 C   0  0  0  0  0  0  0  0  0  0  0  0
    0.7500   -1.2990    0.0000 C   0  0  0  0  0  0  0  0  0  0  0  0
   -0.7500   -1.2990    0.0000 C   0  0  0  0  0  0  0  0  0  0  0  0
   -1.5000    0.0000    0.0000 C   0  0  0  0  0  0  0  0  0  0  0  0
   -0.7500    1.2990    0.0000 C   0  0  0  0  0  0  0  0  0  0  0  0
   -1.5000    2.5981    0.0000 N   0  0  0  0  0  0  0  0  0  0  0  0
   -0.7500    3.8971    0.0000 C   0  0  0  0  0  0  0  0  0  0  0  0
    0.7500    3.8971    0.0000 N   0  0  0  0  0  0  0  0  0  0  0  0
    1.5000    5.1962    0.0000 C   0  0  0  0  0  0  0  0  0  0  0  0
    3.0000    5.1962    0.0000 N   0  0  0  0  0  0  0  0  0  0  0  0
    3.7500    3.8971    0.0000 C   0  0  0  0  0  0  0  0  0  0  0  0
    5.2418    3.7403    0.0000 C   0  0  0  0  0  0  0  0  0  0  0  0
    5.5537    2.2731    0.0000 N   0  0  0  0  0  0  0  0  0  0  0  0
    4.2546    1.5231    0.0000 N   0  0  0  0  0  0  0  0  0  0  0  0
    3.1399    2.5268    0.0000 C   0  0  0  0  0  0  0  0  0  0  0  0
    0.7500    6.4952    0.0000 N   0  0  0  0  0  0  0  0  0  0  0  0
   -0.7500    6.4952    0.0000 C   0  0  0  0  0  0  0  0  0  0  0  0
   -1.5000    5.1962    0.0000 C   0  0  0  0  0  0  0  0  0  0  0  0
   -3.0000    5.1962    0.0000 Cl  0  0  0  0  0  0  0  0  0  0  0  0
    0.7500    1.2990    0.0000 C   0  0  0  0  0  0  0  0  0  0  0  0
  1  2  1  0
  2  3  2  0
  3  4  1  0
  4  5  2  0
  5  6  1  0
  6  7  1  0
  7  8  1  0
  8  9  2  0
  9 10  1  0
 10 11  1  0
 11 12  1  0
 12 13  1  0
 13 14  2  0
 14 15  1  0
 15 16  1  0
 10 17  2  0
 17 18  1  0
 18 19  2  0
 19 20  1  0
  6 21  2  0
 21  2  1  0
 19  8  1  0
 16 12  2  0
M  END
>  <Compound_ID>  (750) 
CHEMBL4453646

>  <Molecule Name>  (750) 
nan

>  <Molecular Weight>  (750) 
321.17

>  <AlogP>  (750) 
3.99

>  <Smiles>  (750) 
Clc1cccc(Nc2nc(Nc3cn[nH]c3)ncc2Cl)c1

>  <Standard Type>  (750) 
Inhibition

>  <Standard Relation>  (750) 
'='

>  <Standard Units>  (750) 
%

>  <Standard Value>  (750) 
6.9

>  <Assay ChEMBL ID>  (750) 
CHEMBL4431275

>  <Assay Description>  (750) 
Inhibition of ALK (unknown origin) at 20 nM relative to control

>  <BAO Format ID>  (750) 
BAO_0000357

>  <BAO Label>  (750) 
single protein format

>  <Assay Organism>  (750) 
Homo sapiens

>  <Target ChEMBL ID>  (750) 
CHEMBL4247

>  <Target Name>  (750) 
ALK tyrosine kinase receptor

>  <Target Organism>  (750) 
Homo sapiens

>  <Target Type>  (750) 
SINGLE PROTEIN

>  <Document ChEMBL ID>  (750) 
CHEMBL4428138

>  <Source Description>  (750) 
Scientific Literature

>  <Document Journal>  (750) 
ACS Med Chem Lett

>  <Document Year>  (750) 
2016.0

>  <Active>  (750) 
0.0

>  <bits>  (750) 
<rdkit.DataStructs.cDataStructs.ExplicitBitVect object at 0x000002422F1E9D90>

>  <Group>  (750) 
G2

$$$$

     RDKit          2D

 25 27  0  0  0  0  0  0  0  0999 V2000
    1.8478   -6.4639    0.0000 O   0  0  0  0  0  0  0  0  0  0  0  0
    2.0046   -4.9721    0.0000 C   0  0  0  0  0  0  0  0  0  0  0  0
    3.3037   -4.2221    0.0000 N   0  0  0  0  0  0  0  0  0  0  0  0
    2.9918   -2.7549    0.0000 C   0  0  0  0  0  0  0  0  0  0  0  0
    3.9955   -1.6402    0.0000 O   0  0  0  0  0  0  0  0  0  0  0  0
    1.5000   -2.5981    0.0000 C   0  0  0  0  0  0  0  0  0  0  0  0
    0.7500   -1.2990    0.0000 C   0  0  0  0  0  0  0  0  0  0  0  0
    1.5000    0.0000    0.0000 C   0  0  0  0  0  0  0  0  0  0  0  0
    0.7500    1.2990    0.0000 C   0  0  0  0  0  0  0  0  0  0  0  0
   -0.7500    1.2990    0.0000 C   0  0  0  0  0  0  0  0  0  0  0  0
   -1.5000    0.0000    0.0000 C   0  0  0  0  0  0  0  0  0  0  0  0
   -3.0000    0.0000    0.0000 Cl  0  0  0  0  0  0  0  0  0  0  0  0
   -0.7500   -1.2990    0.0000 C   0  0  0  0  0  0  0  0  0  0  0  0
    0.8899   -3.9684    0.0000 C   0  0  0  0  0  0  0  0  0  0  0  0
   -0.5773   -4.2803    0.0000 N   0  0  0  0  0  0  0  0  0  0  0  0
   -1.0409   -5.7068    0.0000 C   0  0  0  0  0  0  0  0  0  0  0  0
   -2.5081   -6.0187    0.0000 C   0  0  0  0  0  0  0  0  0  0  0  0
   -2.9716   -7.4453    0.0000 C   0  0  0  0  0  0  0  0  0  0  0  0
   -1.9679   -8.5600    0.0000 C   0  0  0  0  0  0  0  0  0  0  0  0
   -2.4314   -9.9866    0.0000 Cl  0  0  0  0  0  0  0  0  0  0  0  0
   -0.5007   -8.2481    0.0000 C   0  0  0  0  0  0  0  0  0  0  0  0
    0.5030   -9.3629    0.0000 C   0  0  0  0  0  0  0  0  0  0  0  0
    1.9702   -9.0510    0.0000 O   0  0  0  0  0  0  0  0  0  0  0  0
    0.0395  -10.7895    0.0000 O   0  0  0  0  0  0  0  0  0  0  0  0
   -0.0372   -6.8216    0.0000 C   0  0  0  0  0  0  0  0  0  0  0  0
  1  2  2  0
  2  3  1  0
  3  4  1  0
  4  5  2  0
  4  6  1  0
  6  7  1  0
  7  8  2  0
  8  9  1  0
  9 10  2  0
 10 11  1  0
 11 12  1  0
 11 13  2  0
  6 14  2  0
 14 15  1  0
 15 16  1  0
 16 17  2  0
 17 18  1  0
 18 19  2  0
 19 20  1  0
 19 21  1  0
 21 22  1  0
 22 23  2  0
 22 24  1  0
 21 25  2  0
 14  2  1  0
 25 16  1  0
 13  7  1  0
M  END
>  <Compound_ID>  (751) 
CHEMBL156987

>  <Molecule Name>  (751) 
nan

>  <Molecular Weight>  (751) 
377.18

>  <AlogP>  (751) 
3.17

>  <Smiles>  (751) 
O=C1NC(=O)C(c2cccc(Cl)c2)=C1Nc1ccc(Cl)c(C(=O)O)c1

>  <Standard Type>  (751) 
Inhibition

>  <Standard Relation>  (751) 
'='

>  <Standard Units>  (751) 
%

>  <Standard Value>  (751) 
3.05

>  <Assay ChEMBL ID>  (751) 
CHEMBL1962241

>  <Assay Description>  (751) 
GSK_PKIS: ALK mean inhibition at 1 uM [Nanosyn]

>  <BAO Format ID>  (751) 
BAO_0000357

>  <BAO Label>  (751) 
single protein format

>  <Assay Organism>  (751) 
None

>  <Target ChEMBL ID>  (751) 
CHEMBL4247

>  <Target Name>  (751) 
ALK tyrosine kinase receptor

>  <Target Organism>  (751) 
Homo sapiens

>  <Target Type>  (751) 
SINGLE PROTEIN

>  <Document ChEMBL ID>  (751) 
CHEMBL1961873

>  <Source Description>  (751) 
GSK Published Kinase Inhibitor Set

>  <Document Journal>  (751) 
nan

>  <Document Year>  (751) 
nan

>  <Active>  (751) 
0.0

>  <bits>  (751) 
<rdkit.DataStructs.cDataStructs.ExplicitBitVect object at 0x000002422F1E9F50>

>  <Group>  (751) 
G2

$$$$

     RDKit          2D

 25 28  0  0  0  0  0  0  0  0999 V2000
   -3.7548   -2.1855    0.0000 O   0  0  0  0  0  0  0  0  0  0  0  0
   -2.6401   -3.1891    0.0000 C   0  0  0  0  0  0  0  0  0  0  0  0
   -2.9520   -4.6564    0.0000 N   0  0  0  0  0  0  0  0  0  0  0  0
   -4.3786   -5.1199    0.0000 C   0  0  0  0  0  0  0  0  0  0  0  0
   -5.4933   -4.1162    0.0000 C   0  0  0  0  0  0  0  0  0  0  0  0
   -6.9199   -4.5797    0.0000 C   0  0  0  0  0  0  0  0  0  0  0  0
   -7.2317   -6.0469    0.0000 C   0  0  0  0  0  0  0  0  0  0  0  0
   -6.1170   -7.0506    0.0000 C   0  0  0  0  0  0  0  0  0  0  0  0
   -4.6904   -6.5871    0.0000 C   0  0  0  0  0  0  0  0  0  0  0  0
   -3.5757   -7.5908    0.0000 Cl  0  0  0  0  0  0  0  0  0  0  0  0
   -1.2135   -2.7256    0.0000 C   0  0  0  0  0  0  0  0  0  0  0  0
   -0.0000   -3.6073    0.0000 C   0  0  0  0  0  0  0  0  0  0  0  0
    1.2135   -2.7256    0.0000 N   0  0  0  0  0  0  0  0  0  0  0  0
    0.7500   -1.2990    0.0000 C   0  0  0  0  0  0  0  0  0  0  0  0
    1.5000    0.0000    0.0000 C   0  0  0  0  0  0  0  0  0  0  0  0
    0.7500    1.2990    0.0000 C   0  0  0  0  0  0  0  0  0  0  0  0
   -0.7500    1.2990    0.0000 C   0  0  0  0  0  0  0  0  0  0  0  0
   -1.5000    2.5981    0.0000 C   0  0  0  0  0  0  0  0  0  0  0  0
   -0.7500    3.8971    0.0000 C   0  0  0  0  0  0  0  0  0  0  0  0
   -1.5000    5.1962    0.0000 C   0  0  0  0  0  0  0  0  0  0  0  0
   -3.0000    5.1962    0.0000 N   0  0  0  0  0  0  0  0  0  0  0  0
   -3.7500    3.8971    0.0000 C   0  0  0  0  0  0  0  0  0  0  0  0
   -3.0000    2.5981    0.0000 C   0  0  0  0  0  0  0  0  0  0  0  0
   -1.5000    0.0000    0.0000 C   0  0  0  0  0  0  0  0  0  0  0  0
   -0.7500   -1.2990    0.0000 N   0  0  0  0  0  0  0  0  0  0  0  0
  1  2  2  0
  2  3  1  0
  3  4  1  0
  4  5  2  0
  5  6  1  0
  6  7  2  0
  7  8  1  0
  8  9  2  0
  9 10  1  0
  2 11  1  0
 11 12  2  0
 12 13  1  0
 13 14  2  0
 14 15  1  0
 15 16  2  0
 16 17  1  0
 17 18  1  0
 18 19  1  0
 19 20  1  0
 20 21  1  0
 21 22  1  0
 22 23  1  0
 17 24  2  0
 24 25  1  0
  9  4  1  0
 25 11  1  0
 25 14  1  0
 23 18  1  0
M  END
>  <Compound_ID>  (752) 
CHEMBL1077739

>  <Molecule Name>  (752) 
nan

>  <Molecular Weight>  (752) 
444.88

>  <AlogP>  (752) 
3.71

>  <Smiles>  (752) 
O=C(Nc1ccccc1Cl)c1cnc2ccc(C3CCNCC3)cn12

>  <Standard Type>  (752) 
Inhibition

>  <Standard Relation>  (752) 
'='

>  <Standard Units>  (752) 
%

>  <Standard Value>  (752) 
1.0

>  <Assay ChEMBL ID>  (752) 
CHEMBL1107584

>  <Assay Description>  (752) 
Inhibition of ALK at 5 uM

>  <BAO Format ID>  (752) 
BAO_0000357

>  <BAO Label>  (752) 
single protein format

>  <Assay Organism>  (752) 
None

>  <Target ChEMBL ID>  (752) 
CHEMBL4247

>  <Target Name>  (752) 
ALK tyrosine kinase receptor

>  <Target Organism>  (752) 
Homo sapiens

>  <Target Type>  (752) 
SINGLE PROTEIN

>  <Document ChEMBL ID>  (752) 
CHEMBL1154316

>  <Source Description>  (752) 
Scientific Literature

>  <Document Journal>  (752) 
Bioorg Med Chem Lett

>  <Document Year>  (752) 
2009.0

>  <Active>  (752) 
0.0

>  <bits>  (752) 
<rdkit.DataStructs.cDataStructs.ExplicitBitVect object at 0x000002422F1EA490>

>  <Group>  (752) 
G2

$$$$

     RDKit          2D

 44 48  0  0  0  0  0  0  0  0999 V2000
    3.7500   -1.2990    0.0000 C   0  0  0  0  0  0  0  0  0  0  0  0
    3.0000    0.0000    0.0000 O   0  0  0  0  0  0  0  0  0  0  0  0
    1.5000    0.0000    0.0000 C   0  0  0  0  0  0  0  0  0  0  0  0
    0.7500   -1.2990    0.0000 C   0  0  0  0  0  0  0  0  0  0  0  0
   -0.7500   -1.2990    0.0000 C   0  0  0  0  0  0  0  0  0  0  0  0
   -1.5000   -2.5981    0.0000 Cl  0  0  0  0  0  0  0  0  0  0  0  0
   -1.5000    0.0000    0.0000 C   0  0  0  0  0  0  0  0  0  0  0  0
   -0.7500    1.2990    0.0000 C   0  0  0  0  0  0  0  0  0  0  0  0
   -1.5000    2.5981    0.0000 C   0  0  0  0  0  0  0  0  0  0  0  0
   -2.9918    2.7549    0.0000 N   0  0  0  0  0  0  0  0  0  0  0  0
   -3.3037    4.2221    0.0000 N   0  0  0  0  0  0  0  0  0  0  0  0
   -4.6740    4.8322    0.0000 C   0  0  0  0  0  0  0  0  0  0  0  0
   -4.8308    6.3240    0.0000 C   0  0  0  0  0  0  0  0  0  0  0  0
   -6.2011    6.9341    0.0000 C   0  0  0  0  0  0  0  0  0  0  0  0
   -7.4146    6.0524    0.0000 C   0  0  0  0  0  0  0  0  0  0  0  0
   -7.2578    4.5606    0.0000 C   0  0  0  0  0  0  0  0  0  0  0  0
   -8.4713    3.6789    0.0000 N   0  0  0  0  0  0  0  0  0  0  0  0
   -9.8417    4.2890    0.0000 C   0  0  0  0  0  0  0  0  0  0  0  0
   -9.9984    5.7808    0.0000 O   0  0  0  0  0  0  0  0  0  0  0  0
  -11.0552    3.4074    0.0000 N   0  0  0  0  0  0  0  0  0  0  0  0
  -12.4255    4.0175    0.0000 C   0  0  0  0  0  0  0  0  0  0  0  0
  -12.5823    5.5093    0.0000 C   0  0  0  0  0  0  0  0  0  0  0  0
  -13.9526    6.1194    0.0000 C   0  0  0  0  0  0  0  0  0  0  0  0
  -14.1094    7.6111    0.0000 C   0  0  0  0  0  0  0  0  0  0  0  0
  -14.2662    9.1029    0.0000 F   0  0  0  0  0  0  0  0  0  0  0  0
  -12.6176    7.7679    0.0000 F   0  0  0  0  0  0  0  0  0  0  0  0
  -15.6012    7.4544    0.0000 F   0  0  0  0  0  0  0  0  0  0  0  0
  -15.1661    5.2377    0.0000 C   0  0  0  0  0  0  0  0  0  0  0  0
  -15.0093    3.7459    0.0000 C   0  0  0  0  0  0  0  0  0  0  0  0
  -16.2229    2.8642    0.0000 C   0  0  0  0  0  0  0  0  0  0  0  0
  -17.4364    1.9825    0.0000 F   0  0  0  0  0  0  0  0  0  0  0  0
  -17.1045    4.0778    0.0000 F   0  0  0  0  0  0  0  0  0  0  0  0
  -15.3412    1.6507    0.0000 F   0  0  0  0  0  0  0  0  0  0  0  0
  -13.6390    3.1358    0.0000 C   0  0  0  0  0  0  0  0  0  0  0  0
   -5.8875    3.9505    0.0000 C   0  0  0  0  0  0  0  0  0  0  0  0
   -2.0046    4.9721    0.0000 C   0  0  0  0  0  0  0  0  0  0  0  0
   -0.8899    3.9684    0.0000 C   0  0  0  0  0  0  0  0  0  0  0  0
    0.5773    4.2803    0.0000 C   0  0  0  0  0  0  0  0  0  0  0  0
    1.5810    3.1655    0.0000 C   0  0  0  0  0  0  0  0  0  0  0  0
    3.0482    3.4774    0.0000 C   0  0  0  0  0  0  0  0  0  0  0  0
    3.5118    4.9040    0.0000 N   0  0  0  0  0  0  0  0  0  0  0  0
    2.5081    6.0187    0.0000 C   0  0  0  0  0  0  0  0  0  0  0  0
    1.0409    5.7068    0.0000 C   0  0  0  0  0  0  0  0  0  0  0  0
    0.7500    1.2990    0.0000 C   0  0  0  0  0  0  0  0  0  0  0  0
  1  2  1  0
  2  3  1  0
  3  4  2  0
  4  5  1  0
  5  6  1  0
  5  7  2  0
  7  8  1  0
  8  9  1  0
  9 10  2  0
 10 11  1  0
 11 12  1  0
 12 13  2  0
 13 14  1  0
 14 15  2  0
 15 16  1  0
 16 17  1  0
 17 18  1  0
 18 19  2  0
 18 20  1  0
 20 21  1  0
 21 22  2  0
 22 23  1  0
 23 24  1  0
 24 25  1  0
 24 26  1  0
 24 27  1  0
 23 28  2  0
 28 29  1  0
 29 30  1  0
 30 31  1  0
 30 32  1  0
 30 33  1  0
 29 34  2  0
 16 35  2  0
 11 36  1  0
 36 37  2  0
 37 38  1  0
 38 39  2  0
 39 40  1  0
 40 41  2  0
 41 42  1  0
 42 43  2  0
  8 44  2  0
 44  3  1  0
 37  9  1  0
 43 38  1  0
 35 12  1  0
 34 21  1  0
M  END
>  <Compound_ID>  (753) 
CHEMBL4436746

>  <Molecule Name>  (753) 
nan

>  <Molecular Weight>  (753) 
631.96

>  <AlogP>  (753) 
8.94

>  <Smiles>  (753) 
COc1cc(Cl)cc(-c2nn(-c3cccc(NC(=O)Nc4cc(C(F)(F)F)cc(C(F)(F)F)c4)c3)cc2-c2ccncc2)c1

>  <Standard Type>  (753) 
Inhibition

>  <Standard Relation>  (753) 
'='

>  <Standard Units>  (753) 
%

>  <Standard Value>  (753) 
-3.77

>  <Assay ChEMBL ID>  (753) 
CHEMBL4309576

>  <Assay Description>  (753) 
Inhibition of human ALK at 10 uM using poly[Glu:Tyr] (4:1) as substrate after 40 mins in presence of [gamma33P]ATP by scintillation counting method relative to control

>  <BAO Format ID>  (753) 
BAO_0000357

>  <BAO Label>  (753) 
single protein format

>  <Assay Organism>  (753) 
Homo sapiens

>  <Target ChEMBL ID>  (753) 
CHEMBL4247

>  <Target Name>  (753) 
ALK tyrosine kinase receptor

>  <Target Organism>  (753) 
Homo sapiens

>  <Target Type>  (753) 
SINGLE PROTEIN

>  <Document ChEMBL ID>  (753) 
CHEMBL4308841

>  <Source Description>  (753) 
Scientific Literature

>  <Document Journal>  (753) 
Eur J Med Chem

>  <Document Year>  (753) 
2018.0

>  <Active>  (753) 
0.0

>  <bits>  (753) 
<rdkit.DataStructs.cDataStructs.ExplicitBitVect object at 0x000002422F1EA810>

>  <Group>  (753) 
G2

$$$$

     RDKit          2D

 24 28  0  0  0  0  0  0  0  0999 V2000
   -0.5773   -4.2803    0.0000 C   0  0  0  0  0  0  0  0  0  0  0  0
    0.8899   -3.9684    0.0000 C   0  0  0  0  0  0  0  0  0  0  0  0
    2.0046   -4.9721    0.0000 N   0  0  0  0  0  0  0  0  0  0  0  0
    3.3037   -4.2221    0.0000 N   0  0  0  0  0  0  0  0  0  0  0  0
    2.9918   -2.7549    0.0000 C   0  0  0  0  0  0  0  0  0  0  0  0
    3.9955   -1.6402    0.0000 C   0  0  0  0  0  0  0  0  0  0  0  0
    4.3073   -0.1729    0.0000 C   0  0  0  0  0  0  0  0  0  0  0  0
    5.4221   -1.1766    0.0000 C   0  0  0  0  0  0  0  0  0  0  0  0
    1.5000   -2.5981    0.0000 C   0  0  0  0  0  0  0  0  0  0  0  0
    0.7500   -1.2990    0.0000 C   0  0  0  0  0  0  0  0  0  0  0  0
    1.5000    0.0000    0.0000 C   0  0  0  0  0  0  0  0  0  0  0  0
    0.7500    1.2990    0.0000 C   0  0  0  0  0  0  0  0  0  0  0  0
   -0.7500    1.2990    0.0000 C   0  0  0  0  0  0  0  0  0  0  0  0
   -1.7537    2.4138    0.0000 C   0  0  0  0  0  0  0  0  0  0  0  0
   -1.4418    3.8810    0.0000 N   0  0  0  0  0  0  0  0  0  0  0  0
   -2.5565    4.8847    0.0000 C   0  0  0  0  0  0  0  0  0  0  0  0
   -3.9831    4.4211    0.0000 O   0  0  0  0  0  0  0  0  0  0  0  0
   -2.2447    6.3519    0.0000 C   0  0  0  0  0  0  0  0  0  0  0  0
   -2.7082    7.7785    0.0000 C   0  0  0  0  0  0  0  0  0  0  0  0
   -1.2410    7.4666    0.0000 C   0  0  0  0  0  0  0  0  0  0  0  0
   -3.1240    1.8037    0.0000 N   0  0  0  0  0  0  0  0  0  0  0  0
   -2.9672    0.3119    0.0000 O   0  0  0  0  0  0  0  0  0  0  0  0
   -1.5000    0.0000    0.0000 C   0  0  0  0  0  0  0  0  0  0  0  0
   -0.7500   -1.2990    0.0000 C   0  0  0  0  0  0  0  0  0  0  0  0
  1  2  1  0
  2  3  1  0
  3  4  1  0
  4  5  2  0
  5  6  1  0
  6  7  1  0
  7  8  1  0
  5  9  1  0
  9 10  1  0
 10 11  2  0
 11 12  1  0
 12 13  2  0
 13 14  1  0
 14 15  1  0
 15 16  1  0
 16 17  2  0
 16 18  1  0
 18 19  1  0
 19 20  1  0
 14 21  2  0
 21 22  1  0
 22 23  1  0
 23 24  2  0
  9  2  2  0
 24 10  1  0
  8  6  1  0
 23 13  1  0
 20 18  1  0
M  END
>  <Compound_ID>  (754) 
CHEMBL4088455

>  <Molecule Name>  (754) 
nan

>  <Molecular Weight>  (754) 
322.37

>  <AlogP>  (754) 
3.75

>  <Smiles>  (754) 
Cc1[nH]nc(C2CC2)c1-c1ccc2c(NC(=O)C3CC3)noc2c1

>  <Standard Type>  (754) 
Inhibition

>  <Standard Relation>  (754) 
'='

>  <Standard Units>  (754) 
%

>  <Standard Value>  (754) 
0.3

>  <Assay ChEMBL ID>  (754) 
CHEMBL4057578

>  <Assay Description>  (754) 
Inhibition of ALK (unknown origin) at 0.49 uM relative to control

>  <BAO Format ID>  (754) 
BAO_0000357

>  <BAO Label>  (754) 
single protein format

>  <Assay Organism>  (754) 
Homo sapiens

>  <Target ChEMBL ID>  (754) 
CHEMBL4247

>  <Target Name>  (754) 
ALK tyrosine kinase receptor

>  <Target Organism>  (754) 
Homo sapiens

>  <Target Type>  (754) 
SINGLE PROTEIN

>  <Document ChEMBL ID>  (754) 
CHEMBL4052759

>  <Source Description>  (754) 
Scientific Literature

>  <Document Journal>  (754) 
Bioorg Med Chem Lett

>  <Document Year>  (754) 
2017.0

>  <Active>  (754) 
0.0

>  <bits>  (754) 
<rdkit.DataStructs.cDataStructs.ExplicitBitVect object at 0x000002422F1EACE0>

>  <Group>  (754) 
G2

$$$$

     RDKit          2D

 33 36  0  0  0  0  0  0  0  0999 V2000
   -1.3977  -15.4934    0.0000 O   0  0  0  0  0  0  0  0  0  0  0  0
   -2.7680  -14.8833    0.0000 C   0  0  0  0  0  0  0  0  0  0  0  0
   -2.9248  -13.3915    0.0000 C   0  0  0  0  0  0  0  0  0  0  0  0
   -1.7113  -12.5098    0.0000 C   0  0  0  0  0  0  0  0  0  0  0  0
   -1.8681  -11.0180    0.0000 C   0  0  0  0  0  0  0  0  0  0  0  0
   -0.6546  -10.1364    0.0000 C   0  0  0  0  0  0  0  0  0  0  0  0
   -0.8113   -8.6446    0.0000 C   0  0  0  0  0  0  0  0  0  0  0  0
    0.4022   -7.7629    0.0000 C   0  0  0  0  0  0  0  0  0  0  0  0
    0.2454   -6.2711    0.0000 N   0  0  0  0  0  0  0  0  0  0  0  0
    1.3601   -5.2674    0.0000 C   0  0  0  0  0  0  0  0  0  0  0  0
    0.7500   -3.8971    0.0000 C   0  0  0  0  0  0  0  0  0  0  0  0
    1.5000   -2.5981    0.0000 N   0  0  0  0  0  0  0  0  0  0  0  0
    0.7500   -1.2990    0.0000 C   0  0  0  0  0  0  0  0  0  0  0  0
    1.5000    0.0000    0.0000 N   0  0  0  0  0  0  0  0  0  0  0  0
    0.7500    1.2990    0.0000 C   0  0  0  0  0  0  0  0  0  0  0  0
   -0.7500    1.2990    0.0000 C   0  0  0  0  0  0  0  0  0  0  0  0
   -1.7537    2.4138    0.0000 C   0  0  0  0  0  0  0  0  0  0  0  0
   -3.1240    1.8037    0.0000 C   0  0  0  0  0  0  0  0  0  0  0  0
   -2.9672    0.3119    0.0000 N   0  0  0  0  0  0  0  0  0  0  0  0
   -4.0819   -0.6918    0.0000 C   0  0  0  0  0  0  0  0  0  0  0  0
   -5.5085   -0.2283    0.0000 C   0  0  0  0  0  0  0  0  0  0  0  0
   -5.8204    1.2389    0.0000 C   0  0  0  0  0  0  0  0  0  0  0  0
   -7.2470    1.7024    0.0000 C   0  0  0  0  0  0  0  0  0  0  0  0
   -8.3617    0.6987    0.0000 C   0  0  0  0  0  0  0  0  0  0  0  0
   -8.0498   -0.7685    0.0000 C   0  0  0  0  0  0  0  0  0  0  0  0
   -6.6232   -1.2320    0.0000 C   0  0  0  0  0  0  0  0  0  0  0  0
   -6.3114   -2.6992    0.0000 F   0  0  0  0  0  0  0  0  0  0  0  0
   -1.5000    0.0000    0.0000 C   0  0  0  0  0  0  0  0  0  0  0  0
   -0.7500   -1.2990    0.0000 N   0  0  0  0  0  0  0  0  0  0  0  0
   -0.7418   -4.0539    0.0000 C   0  0  0  0  0  0  0  0  0  0  0  0
   -1.0537   -5.5211    0.0000 N   0  0  0  0  0  0  0  0  0  0  0  0
   -3.9815  -15.7650    0.0000 N   0  0  0  0  0  0  0  0  0  0  0  0
   -3.8248  -17.2568    0.0000 O   0  0  0  0  0  0  0  0  0  0  0  0
  1  2  2  0
  2  3  1  0
  3  4  1  0
  4  5  1  0
  5  6  1  0
  6  7  1  0
  7  8  1  0
  8  9  1  0
  9 10  1  0
 10 11  2  0
 11 12  1  0
 12 13  1  0
 13 14  2  0
 14 15  1  0
 15 16  2  0
 16 17  1  0
 17 18  2  0
 18 19  1  0
 19 20  1  0
 20 21  1  0
 21 22  2  0
 22 23  1  0
 23 24  2  0
 24 25  1  0
 25 26  2  0
 26 27  1  0
 19 28  1  0
 28 29  2  0
 11 30  1  0
 30 31  2  0
  2 32  1  0
 32 33  1  0
 31  9  1  0
 29 13  1  0
 28 16  1  0
 26 21  1  0
M  END
>  <Compound_ID>  (755) 
CHEMBL5076728

>  <Molecule Name>  (755) 
nan

>  <Molecular Weight>  (755) 
451.51

>  <AlogP>  (755) 
4.01

>  <Smiles>  (755) 
O=C(CCCCCCn1cc(Nc2ncc3ccn(Cc4ccccc4F)c3n2)cn1)NO

>  <Standard Type>  (755) 
Inhibition

>  <Standard Relation>  (755) 
'='

>  <Standard Units>  (755) 
%

>  <Standard Value>  (755) 
0.0

>  <Assay ChEMBL ID>  (755) 
CHEMBL5038852

>  <Assay Description>  (755) 
Inhibition of human recombinant ALK assessed as reduction in substrate phosphorylation at 50 to 500 nM using ATP and Ulight-CKKSRGDYMTMQIG (IRS-1) incubated for 60 min by LANCE detection method

>  <BAO Format ID>  (755) 
BAO_0000357

>  <BAO Label>  (755) 
single protein format

>  <Assay Organism>  (755) 
Homo sapiens

>  <Target ChEMBL ID>  (755) 
CHEMBL4247

>  <Target Name>  (755) 
ALK tyrosine kinase receptor

>  <Target Organism>  (755) 
Homo sapiens

>  <Target Type>  (755) 
SINGLE PROTEIN

>  <Document ChEMBL ID>  (755) 
CHEMBL5038570

>  <Source Description>  (755) 
Scientific Literature

>  <Document Journal>  (755) 
J Med Chem

>  <Document Year>  (755) 
2022.0

>  <Active>  (755) 
0.0

>  <bits>  (755) 
<rdkit.DataStructs.cDataStructs.ExplicitBitVect object at 0x000002422F1EAC00>

>  <Group>  (755) 
G2

$$$$

     RDKit          2D

 29 33  0  0  0  0  0  0  0  0999 V2000
   -8.3464   -5.0433    0.0000 C   0  0  0  0  0  0  0  0  0  0  0  0
   -6.9199   -4.5797    0.0000 S   0  0  0  0  0  0  0  0  0  0  0  0
   -6.4563   -6.0063    0.0000 O   0  0  0  0  0  0  0  0  0  0  0  0
   -7.3834   -3.1531    0.0000 O   0  0  0  0  0  0  0  0  0  0  0  0
   -5.4933   -4.1162    0.0000 C   0  0  0  0  0  0  0  0  0  0  0  0
   -5.1814   -2.6490    0.0000 C   0  0  0  0  0  0  0  0  0  0  0  0
   -3.7548   -2.1855    0.0000 C   0  0  0  0  0  0  0  0  0  0  0  0
   -2.6401   -3.1891    0.0000 C   0  0  0  0  0  0  0  0  0  0  0  0
   -1.2135   -2.7256    0.0000 N   0  0  0  0  0  0  0  0  0  0  0  0
   -0.0000   -3.6073    0.0000 N   0  0  0  0  0  0  0  0  0  0  0  0
    1.2135   -2.7256    0.0000 C   0  0  0  0  0  0  0  0  0  0  0  0
    2.6401   -3.1891    0.0000 C   0  0  0  0  0  0  0  0  0  0  0  0
    3.7548   -2.1855    0.0000 C   0  0  0  0  0  0  0  0  0  0  0  0
    5.1814   -2.6490    0.0000 N   0  0  0  0  0  0  0  0  0  0  0  0
    5.4933   -4.1162    0.0000 C   0  0  0  0  0  0  0  0  0  0  0  0
    6.7923   -4.8662    0.0000 N   0  0  0  0  0  0  0  0  0  0  0  0
    6.4805   -6.3334    0.0000 C   0  0  0  0  0  0  0  0  0  0  0  0
    4.9887   -6.4902    0.0000 C   0  0  0  0  0  0  0  0  0  0  0  0
    4.3786   -5.1199    0.0000 C   0  0  0  0  0  0  0  0  0  0  0  0
    2.9520   -4.6564    0.0000 C   0  0  0  0  0  0  0  0  0  0  0  0
    0.7500   -1.2990    0.0000 C   0  0  0  0  0  0  0  0  0  0  0  0
    1.5000    0.0000    0.0000 C   0  0  0  0  0  0  0  0  0  0  0  0
    3.0000    0.0000    0.0000 N   0  0  0  0  0  0  0  0  0  0  0  0
    0.7500    1.2990    0.0000 N   0  0  0  0  0  0  0  0  0  0  0  0
   -0.7500    1.2990    0.0000 C   0  0  0  0  0  0  0  0  0  0  0  0
   -1.5000    0.0000    0.0000 N   0  0  0  0  0  0  0  0  0  0  0  0
   -0.7500   -1.2990    0.0000 C   0  0  0  0  0  0  0  0  0  0  0  0
   -2.9520   -4.6564    0.0000 C   0  0  0  0  0  0  0  0  0  0  0  0
   -4.3786   -5.1199    0.0000 C   0  0  0  0  0  0  0  0  0  0  0  0
  1  2  1  0
  2  3  2  0
  2  4  2  0
  2  5  1  0
  5  6  2  0
  6  7  1  0
  7  8  2  0
  8  9  1  0
  9 10  1  0
 10 11  2  0
 11 12  1  0
 12 13  2  0
 13 14  1  0
 14 15  2  0
 15 16  1  0
 16 17  1  0
 17 18  2  0
 18 19  1  0
 19 20  2  0
 11 21  1  0
 21 22  2  0
 22 23  1  0
 22 24  1  0
 24 25  2  0
 25 26  1  0
 26 27  2  0
  8 28  1  0
 28 29  2  0
 29  5  1  0
 27  9  1  0
 20 12  1  0
 27 21  1  0
 19 15  1  0
M  END
>  <Compound_ID>  (756) 
CHEMBL4207014

>  <Molecule Name>  (756) 
nan

>  <Molecular Weight>  (756) 
405.44

>  <AlogP>  (756) 
2.34

>  <Smiles>  (756) 
CS(=O)(=O)c1ccc(-n2nc(-c3cnc4[nH]ccc4c3)c3c(N)ncnc32)cc1

>  <Standard Type>  (756) 
Inhibition

>  <Standard Relation>  (756) 
'='

>  <Standard Units>  (756) 
%

>  <Standard Value>  (756) 
-4.0

>  <Assay ChEMBL ID>  (756) 
CHEMBL4190855

>  <Assay Description>  (756) 
Inhibition of recombinant human ALK (1058 to end residues) at 1 uM using KKKSPGEYVNIEFG as substrate after 40 mins in presence of [gamma-33P]ATP by scintillation counting method

>  <BAO Format ID>  (756) 
BAO_0000357

>  <BAO Label>  (756) 
single protein format

>  <Assay Organism>  (756) 
Homo sapiens

>  <Target ChEMBL ID>  (756) 
CHEMBL4247

>  <Target Name>  (756) 
ALK tyrosine kinase receptor

>  <Target Organism>  (756) 
Homo sapiens

>  <Target Type>  (756) 
SINGLE PROTEIN

>  <Document ChEMBL ID>  (756) 
CHEMBL4190187

>  <Source Description>  (756) 
Scientific Literature

>  <Document Journal>  (756) 
Bioorg Med Chem Lett

>  <Document Year>  (756) 
2017.0

>  <Active>  (756) 
0.0

>  <bits>  (756) 
<rdkit.DataStructs.cDataStructs.ExplicitBitVect object at 0x000002422F1E84A0>

>  <Group>  (756) 
G2

$$$$

     RDKit          2D

 22 23  0  0  0  0  0  0  0  0999 V2000
    3.0000    0.0000    0.0000 C   0  0  0  0  0  0  0  0  0  0  0  0
    1.5000    0.0000    0.0000 C   0  0  0  0  0  0  0  0  0  0  0  0
    0.7500   -1.2990    0.0000 C   0  0  0  0  0  0  0  0  0  0  0  0
   -0.7500   -1.2990    0.0000 C   0  0  0  0  0  0  0  0  0  0  0  0
   -1.5000   -2.5981    0.0000 O   0  0  0  0  0  0  0  0  0  0  0  0
   -1.5000    0.0000    0.0000 C   0  0  0  0  0  0  0  0  0  0  0  0
   -0.7500    1.2990    0.0000 C   0  0  0  0  0  0  0  0  0  0  0  0
   -1.5000    2.5981    0.0000 C   0  0  0  0  0  0  0  0  0  0  0  0
    0.7500    1.2990    0.0000 C   0  0  0  0  0  0  0  0  0  0  0  0
    1.5000    2.5981    0.0000 C   0  0  0  0  0  0  0  0  0  0  0  0
    3.0000    2.5981    0.0000 C   0  0  0  0  0  0  0  0  0  0  0  0
    3.7500    3.8971    0.0000 C   0  0  0  0  0  0  0  0  0  0  0  0
    5.2500    3.8971    0.0000 C   0  0  0  0  0  0  0  0  0  0  0  0
    6.0000    5.1962    0.0000 N   0  0  0  0  0  0  0  0  0  0  0  0
    5.2500    6.4952    0.0000 C   0  0  0  0  0  0  0  0  0  0  0  0
    3.7500    6.4952    0.0000 C   0  0  0  0  0  0  0  0  0  0  0  0
    3.0000    7.7942    0.0000 C   0  0  0  0  0  0  0  0  0  0  0  0
    1.5000    7.7942    0.0000 O   0  0  0  0  0  0  0  0  0  0  0  0
    3.7500    9.0933    0.0000 N   0  0  0  0  0  0  0  0  0  0  0  0
    3.0000   10.3923    0.0000 C   0  0  0  0  0  0  0  0  0  0  0  0
    5.2500    9.0933    0.0000 C   0  0  0  0  0  0  0  0  0  0  0  0
    3.0000    5.1962    0.0000 C   0  0  0  0  0  0  0  0  0  0  0  0
  1  2  1  0
  2  3  2  0
  3  4  1  0
  4  5  1  0
  4  6  2  0
  6  7  1  0
  7  8  1  0
  7  9  2  0
  9 10  1  0
 10 11  2  0
 11 12  1  0
 12 13  2  0
 13 14  1  0
 14 15  2  0
 15 16  1  0
 16 17  1  0
 17 18  2  0
 17 19  1  0
 19 20  1  0
 19 21  1  0
 16 22  2  0
  9  2  1  0
 22 12  1  0
M  END
>  <Compound_ID>  (757) 
CHEMBL220244

>  <Molecule Name>  (757) 
GW427984X

>  <Molecular Weight>  (757) 
296.37

>  <AlogP>  (757) 
3.28

>  <Smiles>  (757) 
Cc1cc(O)cc(C)c1/C=C/c1cncc(C(=O)N(C)C)c1

>  <Standard Type>  (757) 
Inhibition

>  <Standard Relation>  (757) 
'='

>  <Standard Units>  (757) 
%

>  <Standard Value>  (757) 
3.57

>  <Assay ChEMBL ID>  (757) 
CHEMBL1962241

>  <Assay Description>  (757) 
GSK_PKIS: ALK mean inhibition at 1 uM [Nanosyn]

>  <BAO Format ID>  (757) 
BAO_0000357

>  <BAO Label>  (757) 
single protein format

>  <Assay Organism>  (757) 
None

>  <Target ChEMBL ID>  (757) 
CHEMBL4247

>  <Target Name>  (757) 
ALK tyrosine kinase receptor

>  <Target Organism>  (757) 
Homo sapiens

>  <Target Type>  (757) 
SINGLE PROTEIN

>  <Document ChEMBL ID>  (757) 
CHEMBL1961873

>  <Source Description>  (757) 
GSK Published Kinase Inhibitor Set

>  <Document Journal>  (757) 
nan

>  <Document Year>  (757) 
nan

>  <Active>  (757) 
0.0

>  <bits>  (757) 
<rdkit.DataStructs.cDataStructs.ExplicitBitVect object at 0x000002422F1E98C0>

>  <Group>  (757) 
G2

$$$$

     RDKit          2D

 43 48  0  0  0  0  0  0  0  0999 V2000
   -2.0316    4.0898    0.0000 O   0  0  0  0  0  0  0  0  0  0  0  0
   -3.1463    5.0935    0.0000 C   0  0  0  0  0  0  0  0  0  0  0  0
   -4.5729    4.6300    0.0000 N   0  0  0  0  0  0  0  0  0  0  0  0
   -4.8848    3.1627    0.0000 C   0  0  0  0  0  0  0  0  0  0  0  0
   -6.3114    2.6992    0.0000 C   0  0  0  0  0  0  0  0  0  0  0  0
   -6.6232    1.2320    0.0000 C   0  0  0  0  0  0  0  0  0  0  0  0
   -5.5085    0.2283    0.0000 C   0  0  0  0  0  0  0  0  0  0  0  0
   -4.0819    0.6918    0.0000 C   0  0  0  0  0  0  0  0  0  0  0  0
   -2.9672   -0.3119    0.0000 N   0  0  0  0  0  0  0  0  0  0  0  0
   -3.1240   -1.8037    0.0000 C   0  0  0  0  0  0  0  0  0  0  0  0
   -1.7537   -2.4138    0.0000 C   0  0  0  0  0  0  0  0  0  0  0  0
   -0.7500   -1.2990    0.0000 C   0  0  0  0  0  0  0  0  0  0  0  0
    0.7500   -1.2990    0.0000 C   0  0  0  0  0  0  0  0  0  0  0  0
    1.5000   -2.5981    0.0000 N   0  0  0  0  0  0  0  0  0  0  0  0
    3.0000   -2.5981    0.0000 C   0  0  0  0  0  0  0  0  0  0  0  0
    3.7500   -1.2990    0.0000 O   0  0  0  0  0  0  0  0  0  0  0  0
    3.7500   -3.8971    0.0000 C   0  0  0  0  0  0  0  0  0  0  0  0
    3.0000   -5.1962    0.0000 C   0  0  0  0  0  0  0  0  0  0  0  0
    3.7500   -6.4952    0.0000 C   0  0  0  0  0  0  0  0  0  0  0  0
    5.2500   -6.4952    0.0000 C   0  0  0  0  0  0  0  0  0  0  0  0
    6.0000   -5.1962    0.0000 C   0  0  0  0  0  0  0  0  0  0  0  0
    5.2500   -3.8971    0.0000 C   0  0  0  0  0  0  0  0  0  0  0  0
    1.5000    0.0000    0.0000 N   0  0  0  0  0  0  0  0  0  0  0  0
    0.7500    1.2990    0.0000 C   0  0  0  0  0  0  0  0  0  0  0  0
   -0.7500    1.2990    0.0000 C   0  0  0  0  0  0  0  0  0  0  0  0
   -1.5000    0.0000    0.0000 C   0  0  0  0  0  0  0  0  0  0  0  0
   -3.7701    2.1590    0.0000 C   0  0  0  0  0  0  0  0  0  0  0  0
   -2.8345    6.5607    0.0000 C   0  0  0  0  0  0  0  0  0  0  0  0
   -1.4079    7.0242    0.0000 C   0  0  0  0  0  0  0  0  0  0  0  0
   -1.0960    8.4915    0.0000 C   0  0  0  0  0  0  0  0  0  0  0  0
   -2.2107    9.4952    0.0000 C   0  0  0  0  0  0  0  0  0  0  0  0
   -1.8989   10.9624    0.0000 N   0  0  0  0  0  0  0  0  0  0  0  0
   -0.4723   11.4259    0.0000 C   0  0  0  0  0  0  0  0  0  0  0  0
   -0.1604   12.8931    0.0000 C   0  0  0  0  0  0  0  0  0  0  0  0
   -1.2751   13.8968    0.0000 O   0  0  0  0  0  0  0  0  0  0  0  0
   -2.7017   13.4333    0.0000 C   0  0  0  0  0  0  0  0  0  0  0  0
   -3.0136   11.9661    0.0000 C   0  0  0  0  0  0  0  0  0  0  0  0
   -3.6373    9.0316    0.0000 C   0  0  0  0  0  0  0  0  0  0  0  0
   -4.7520   10.0353    0.0000 C   0  0  0  0  0  0  0  0  0  0  0  0
   -5.8668   11.0390    0.0000 F   0  0  0  0  0  0  0  0  0  0  0  0
   -5.7557    8.9206    0.0000 F   0  0  0  0  0  0  0  0  0  0  0  0
   -3.7483   11.1500    0.0000 F   0  0  0  0  0  0  0  0  0  0  0  0
   -3.9492    7.5644    0.0000 C   0  0  0  0  0  0  0  0  0  0  0  0
  1  2  2  0
  2  3  1  0
  3  4  1  0
  4  5  2  0
  5  6  1  0
  6  7  2  0
  7  8  1  0
  8  9  1  0
  9 10  1  0
 10 11  2  0
 11 12  1  0
 12 13  2  0
 13 14  1  0
 14 15  1  0
 15 16  2  0
 15 17  1  0
 17 18  2  0
 18 19  1  0
 19 20  2  0
 20 21  1  0
 21 22  2  0
 13 23  1  0
 23 24  2  0
 24 25  1  0
 25 26  2  0
  8 27  2  0
  2 28  1  0
 28 29  2  0
 29 30  1  0
 30 31  2  0
 31 32  1  0
 32 33  1  0
 33 34  1  0
 34 35  1  0
 35 36  1  0
 36 37  1  0
 31 38  1  0
 38 39  1  0
 39 40  1  0
 39 41  1  0
 39 42  1  0
 38 43  2  0
 27  4  1  0
 43 28  1  0
 26  9  1  0
 37 32  1  0
 26 12  1  0
 22 17  1  0
M  END
>  <Compound_ID>  (758) 
CHEMBL1084450

>  <Molecule Name>  (758) 
nan

>  <Molecular Weight>  (758) 
585.59

>  <AlogP>  (758) 
6.39

>  <Smiles>  (758) 
O=C(Nc1cccc(-n2ccc3c(NC(=O)c4ccccc4)nccc32)c1)c1ccc(N2CCOCC2)c(C(F)(F)F)c1

>  <Standard Type>  (758) 
Inhibition

>  <Standard Relation>  (758) 
'='

>  <Standard Units>  (758) 
%

>  <Standard Value>  (758) 
11.0

>  <Assay ChEMBL ID>  (758) 
CHEMBL1120192

>  <Assay Description>  (758) 
Inhibition of ALK at 1 uM

>  <BAO Format ID>  (758) 
BAO_0000357

>  <BAO Label>  (758) 
single protein format

>  <Assay Organism>  (758) 
None

>  <Target ChEMBL ID>  (758) 
CHEMBL4247

>  <Target Name>  (758) 
ALK tyrosine kinase receptor

>  <Target Organism>  (758) 
Homo sapiens

>  <Target Type>  (758) 
SINGLE PROTEIN

>  <Document ChEMBL ID>  (758) 
CHEMBL1155511

>  <Source Description>  (758) 
Scientific Literature

>  <Document Journal>  (758) 
Bioorg Med Chem Lett

>  <Document Year>  (758) 
2010.0

>  <Active>  (758) 
0.0

>  <bits>  (758) 
<rdkit.DataStructs.cDataStructs.ExplicitBitVect object at 0x000002422F1E8580>

>  <Group>  (758) 
G2

$$$$

     RDKit          2D

 43 47  0  0  0  0  0  0  0  0999 V2000
   -4.5334   -5.0390    0.0000 C   0  0  0  0  0  0  0  0  0  0  0  0
   -3.3199   -5.9207    0.0000 S   0  0  0  0  0  0  0  0  0  0  0  0
   -2.4382   -4.7072    0.0000 O   0  0  0  0  0  0  0  0  0  0  0  0
   -4.2015   -7.1343    0.0000 O   0  0  0  0  0  0  0  0  0  0  0  0
   -2.1063   -6.8024    0.0000 C   0  0  0  0  0  0  0  0  0  0  0  0
   -0.7360   -6.1923    0.0000 C   0  0  0  0  0  0  0  0  0  0  0  0
    0.4775   -7.0740    0.0000 N   0  0  0  0  0  0  0  0  0  0  0  0
    0.3207   -8.5658    0.0000 C   0  0  0  0  0  0  0  0  0  0  0  0
   -1.0496   -9.1759    0.0000 C   0  0  0  0  0  0  0  0  0  0  0  0
   -2.4199   -9.7860    0.0000 N   0  0  0  0  0  0  0  0  0  0  0  0
    1.8478   -6.4639    0.0000 C   0  0  0  0  0  0  0  0  0  0  0  0
    2.0046   -4.9721    0.0000 C   0  0  0  0  0  0  0  0  0  0  0  0
    3.3037   -4.2221    0.0000 C   0  0  0  0  0  0  0  0  0  0  0  0
    2.9918   -2.7549    0.0000 C   0  0  0  0  0  0  0  0  0  0  0  0
    1.5000   -2.5981    0.0000 C   0  0  0  0  0  0  0  0  0  0  0  0
    0.7500   -1.2990    0.0000 C   0  0  0  0  0  0  0  0  0  0  0  0
    1.5000    0.0000    0.0000 C   0  0  0  0  0  0  0  0  0  0  0  0
    0.7500    1.2990    0.0000 C   0  0  0  0  0  0  0  0  0  0  0  0
   -0.7500    1.2990    0.0000 C   0  0  0  0  0  0  0  0  0  0  0  0
   -1.5000    2.5981    0.0000 N   0  0  0  0  0  0  0  0  0  0  0  0
   -3.0000    2.5981    0.0000 C   0  0  0  0  0  0  0  0  0  0  0  0
   -3.7500    1.2990    0.0000 N   0  0  0  0  0  0  0  0  0  0  0  0
   -3.0000    0.0000    0.0000 C   0  0  0  0  0  0  0  0  0  0  0  0
   -3.7500   -1.2990    0.0000 N   0  0  0  0  0  0  0  0  0  0  0  0
   -5.2500   -1.2990    0.0000 C   0  0  0  0  0  0  0  0  0  0  0  0
   -6.0000    0.0000    0.0000 C   0  0  0  0  0  0  0  0  0  0  0  0
   -7.5000    0.0000    0.0000 C   0  0  0  0  0  0  0  0  0  0  0  0
   -8.2500   -1.2990    0.0000 C   0  0  0  0  0  0  0  0  0  0  0  0
   -9.7500   -1.2990    0.0000 O   0  0  0  0  0  0  0  0  0  0  0  0
  -10.5000    0.0000    0.0000 C   0  0  0  0  0  0  0  0  0  0  0  0
  -12.0000    0.0000    0.0000 C   0  0  0  0  0  0  0  0  0  0  0  0
  -12.7500    1.2990    0.0000 C   0  0  0  0  0  0  0  0  0  0  0  0
  -14.2500    1.2990    0.0000 C   0  0  0  0  0  0  0  0  0  0  0  0
  -15.0000    0.0000    0.0000 C   0  0  0  0  0  0  0  0  0  0  0  0
  -14.2500   -1.2990    0.0000 C   0  0  0  0  0  0  0  0  0  0  0  0
  -15.0000   -2.5981    0.0000 F   0  0  0  0  0  0  0  0  0  0  0  0
  -12.7500   -1.2990    0.0000 C   0  0  0  0  0  0  0  0  0  0  0  0
   -7.5000   -2.5981    0.0000 C   0  0  0  0  0  0  0  0  0  0  0  0
   -8.2500   -3.8971    0.0000 Cl  0  0  0  0  0  0  0  0  0  0  0  0
   -6.0000   -2.5981    0.0000 C   0  0  0  0  0  0  0  0  0  0  0  0
   -1.5000    0.0000    0.0000 C   0  0  0  0  0  0  0  0  0  0  0  0
   -0.7500   -1.2990    0.0000 C   0  0  0  0  0  0  0  0  0  0  0  0
    0.8899   -3.9684    0.0000 O   0  0  0  0  0  0  0  0  0  0  0  0
  1  2  1  0
  2  3  2  0
  2  4  2  0
  2  5  1  0
  5  6  1  0
  6  7  1  0
  7  8  1  0
  8  9  1  0
  9 10  3  0
  7 11  1  0
 11 12  1  0
 12 13  2  0
 13 14  1  0
 14 15  2  0
 15 16  1  0
 16 17  2  0
 17 18  1  0
 18 19  2  0
 19 20  1  0
 20 21  2  0
 21 22  1  0
 22 23  2  0
 23 24  1  0
 24 25  1  0
 25 26  2  0
 26 27  1  0
 27 28  2  0
 28 29  1  0
 29 30  1  0
 30 31  1  0
 31 32  2  0
 32 33  1  0
 33 34  2  0
 34 35  1  0
 35 36  1  0
 35 37  2  0
 28 38  1  0
 38 39  1  0
 38 40  2  0
 23 41  1  0
 41 42  2  0
 15 43  1  0
 43 12  1  0
 42 16  1  0
 41 19  1  0
 40 25  1  0
 37 31  1  0
M  END
>  <Compound_ID>  (759) 
CHEMBL384407

>  <Molecule Name>  (759) 
GW616030X

>  <Molecular Weight>  (759) 
620.11

>  <AlogP>  (759) 
6.38

>  <Smiles>  (759) 
CS(=O)(=O)CCN(CC#N)Cc1ccc(-c2ccc3ncnc(Nc4ccc(OCc5cccc(F)c5)c(Cl)c4)c3c2)o1

>  <Standard Type>  (759) 
Inhibition

>  <Standard Relation>  (759) 
'='

>  <Standard Units>  (759) 
%

>  <Standard Value>  (759) 
-0.48

>  <Assay ChEMBL ID>  (759) 
CHEMBL1962241

>  <Assay Description>  (759) 
GSK_PKIS: ALK mean inhibition at 1 uM [Nanosyn]

>  <BAO Format ID>  (759) 
BAO_0000357

>  <BAO Label>  (759) 
single protein format

>  <Assay Organism>  (759) 
None

>  <Target ChEMBL ID>  (759) 
CHEMBL4247

>  <Target Name>  (759) 
ALK tyrosine kinase receptor

>  <Target Organism>  (759) 
Homo sapiens

>  <Target Type>  (759) 
SINGLE PROTEIN

>  <Document ChEMBL ID>  (759) 
CHEMBL1961873

>  <Source Description>  (759) 
GSK Published Kinase Inhibitor Set

>  <Document Journal>  (759) 
nan

>  <Document Year>  (759) 
nan

>  <Active>  (759) 
0.0

>  <bits>  (759) 
<rdkit.DataStructs.cDataStructs.ExplicitBitVect object at 0x000002422F1E9A10>

>  <Group>  (759) 
G2

$$$$

     RDKit          2D

 30 33  0  0  0  0  0  0  0  0999 V2000
    3.7500   -1.2990    0.0000 N   0  0  0  0  0  0  0  0  0  0  0  0
    3.0000    0.0000    0.0000 C   0  0  0  0  0  0  0  0  0  0  0  0
    3.7500    1.2990    0.0000 O   0  0  0  0  0  0  0  0  0  0  0  0
    1.5000    0.0000    0.0000 C   0  0  0  0  0  0  0  0  0  0  0  0
    0.7500   -1.2990    0.0000 C   0  0  0  0  0  0  0  0  0  0  0  0
   -0.7500   -1.2990    0.0000 C   0  0  0  0  0  0  0  0  0  0  0  0
   -1.5000    0.0000    0.0000 C   0  0  0  0  0  0  0  0  0  0  0  0
   -2.9672    0.3119    0.0000 C   0  0  0  0  0  0  0  0  0  0  0  0
   -4.0819   -0.6918    0.0000 C   0  0  0  0  0  0  0  0  0  0  0  0
   -5.5085   -0.2283    0.0000 C   0  0  0  0  0  0  0  0  0  0  0  0
   -6.6232   -1.2320    0.0000 C   0  0  0  0  0  0  0  0  0  0  0  0
   -6.3114   -2.6992    0.0000 N   0  0  0  0  0  0  0  0  0  0  0  0
   -4.8848   -3.1627    0.0000 C   0  0  0  0  0  0  0  0  0  0  0  0
   -4.5729   -4.6300    0.0000 N   0  0  0  0  0  0  0  0  0  0  0  0
   -5.6876   -5.6337    0.0000 C   0  0  0  0  0  0  0  0  0  0  0  0
   -5.3758   -7.1009    0.0000 C   0  0  0  0  0  0  0  0  0  0  0  0
   -6.4905   -8.1046    0.0000 C   0  0  0  0  0  0  0  0  0  0  0  0
   -6.1786   -9.5718    0.0000 O   0  0  0  0  0  0  0  0  0  0  0  0
   -3.7701   -2.1590    0.0000 N   0  0  0  0  0  0  0  0  0  0  0  0
   -3.1240    1.8037    0.0000 C   0  0  0  0  0  0  0  0  0  0  0  0
   -4.4231    2.5537    0.0000 C   0  0  0  0  0  0  0  0  0  0  0  0
   -4.4231    4.0537    0.0000 C   0  0  0  0  0  0  0  0  0  0  0  0
   -5.7221    4.8037    0.0000 C   0  0  0  0  0  0  0  0  0  0  0  0
   -7.0211    4.0537    0.0000 C   0  0  0  0  0  0  0  0  0  0  0  0
   -8.3202    4.8037    0.0000 F   0  0  0  0  0  0  0  0  0  0  0  0
   -7.0211    2.5537    0.0000 C   0  0  0  0  0  0  0  0  0  0  0  0
   -5.7221    1.8037    0.0000 C   0  0  0  0  0  0  0  0  0  0  0  0
   -1.7537    2.4138    0.0000 N   0  0  0  0  0  0  0  0  0  0  0  0
   -0.7500    1.2990    0.0000 N   0  0  0  0  0  0  0  0  0  0  0  0
    0.7500    1.2990    0.0000 C   0  0  0  0  0  0  0  0  0  0  0  0
  1  2  1  0
  2  3  2  0
  2  4  1  0
  4  5  1  0
  5  6  2  0
  6  7  1  0
  7  8  2  0
  8  9  1  0
  9 10  2  0
 10 11  1  0
 11 12  2  0
 12 13  1  0
 13 14  1  0
 14 15  1  0
 15 16  1  0
 16 17  1  0
 17 18  1  0
 13 19  2  0
  8 20  1  0
 20 21  1  0
 21 22  2  0
 22 23  1  0
 23 24  2  0
 24 25  1  0
 24 26  1  0
 26 27  2  0
 20 28  2  0
 28 29  1  0
 29 30  1  0
 30  4  2  0
 29  7  1  0
 19  9  1  0
 27 21  1  0
M  END
>  <Compound_ID>  (760) 
CHEMBL1909404

>  <Molecule Name>  (760) 
GW581744X

>  <Molecular Weight>  (760) 
406.42

>  <AlogP>  (760) 
2.49

>  <Smiles>  (760) 
NC(=O)c1ccc2c(-c3ccnc(NCCCO)n3)c(-c3ccc(F)cc3)nn2c1

>  <Standard Type>  (760) 
Inhibition

>  <Standard Relation>  (760) 
'='

>  <Standard Units>  (760) 
%

>  <Standard Value>  (760) 
3.18

>  <Assay ChEMBL ID>  (760) 
CHEMBL1962240

>  <Assay Description>  (760) 
GSK_PKIS: ALK mean inhibition at 0.1 uM [Nanosyn]

>  <BAO Format ID>  (760) 
BAO_0000357

>  <BAO Label>  (760) 
single protein format

>  <Assay Organism>  (760) 
None

>  <Target ChEMBL ID>  (760) 
CHEMBL4247

>  <Target Name>  (760) 
ALK tyrosine kinase receptor

>  <Target Organism>  (760) 
Homo sapiens

>  <Target Type>  (760) 
SINGLE PROTEIN

>  <Document ChEMBL ID>  (760) 
CHEMBL1961873

>  <Source Description>  (760) 
GSK Published Kinase Inhibitor Set

>  <Document Journal>  (760) 
nan

>  <Document Year>  (760) 
nan

>  <Active>  (760) 
0.0

>  <bits>  (760) 
<rdkit.DataStructs.cDataStructs.ExplicitBitVect object at 0x000002422F1E8C80>

>  <Group>  (760) 
G2

$$$$

     RDKit          2D

 31 35  0  0  0  0  0  0  0  0999 V2000
    3.0000   -5.1962    0.0000 C   0  0  0  0  0  0  0  0  0  0  0  0
    1.5000   -5.1962    0.0000 O   0  0  0  0  0  0  0  0  0  0  0  0
    0.7500   -3.8971    0.0000 C   0  0  0  0  0  0  0  0  0  0  0  0
    1.5000   -2.5981    0.0000 C   0  0  0  0  0  0  0  0  0  0  0  0
    0.7500   -1.2990    0.0000 C   0  0  0  0  0  0  0  0  0  0  0  0
    1.5000    0.0000    0.0000 N   0  0  0  0  0  0  0  0  0  0  0  0
    0.7500    1.2990    0.0000 C   0  0  0  0  0  0  0  0  0  0  0  0
   -0.7500    1.2990    0.0000 N   0  0  0  0  0  0  0  0  0  0  0  0
   -1.5000    0.0000    0.0000 C   0  0  0  0  0  0  0  0  0  0  0  0
   -3.0000    0.0000    0.0000 N   0  0  0  0  0  0  0  0  0  0  0  0
   -3.7500    1.2990    0.0000 C   0  0  0  0  0  0  0  0  0  0  0  0
   -3.0000    2.5981    0.0000 C   0  0  0  0  0  0  0  0  0  0  0  0
   -3.7500    3.8971    0.0000 C   0  0  0  0  0  0  0  0  0  0  0  0
   -5.2500    3.8971    0.0000 C   0  0  0  0  0  0  0  0  0  0  0  0
   -6.0000    2.5981    0.0000 C   0  0  0  0  0  0  0  0  0  0  0  0
   -7.4672    2.9099    0.0000 C   0  0  0  0  0  0  0  0  0  0  0  0
   -7.6240    4.4017    0.0000 N   0  0  0  0  0  0  0  0  0  0  0  0
   -6.2537    5.0118    0.0000 N   0  0  0  0  0  0  0  0  0  0  0  0
   -5.9418    6.4791    0.0000 C   0  0  0  0  0  0  0  0  0  0  0  0
   -7.0565    7.4827    0.0000 C   0  0  0  0  0  0  0  0  0  0  0  0
   -6.7447    8.9500    0.0000 C   0  0  0  0  0  0  0  0  0  0  0  0
   -7.8594    9.9537    0.0000 C   0  0  0  0  0  0  0  0  0  0  0  0
   -9.2860    9.4901    0.0000 C   0  0  0  0  0  0  0  0  0  0  0  0
   -9.5978    8.0229    0.0000 C   0  0  0  0  0  0  0  0  0  0  0  0
   -8.4831    7.0192    0.0000 C   0  0  0  0  0  0  0  0  0  0  0  0
   -5.2500    1.2990    0.0000 C   0  0  0  0  0  0  0  0  0  0  0  0
   -0.7500   -1.2990    0.0000 C   0  0  0  0  0  0  0  0  0  0  0  0
   -1.5000   -2.5981    0.0000 C   0  0  0  0  0  0  0  0  0  0  0  0
   -0.7500   -3.8971    0.0000 C   0  0  0  0  0  0  0  0  0  0  0  0
   -1.5000   -5.1962    0.0000 O   0  0  0  0  0  0  0  0  0  0  0  0
   -3.0000   -5.1962    0.0000 C   0  0  0  0  0  0  0  0  0  0  0  0
  1  2  1  0
  2  3  1  0
  3  4  2  0
  4  5  1  0
  5  6  2  0
  6  7  1  0
  7  8  2  0
  8  9  1  0
  9 10  1  0
 10 11  1  0
 11 12  2  0
 12 13  1  0
 13 14  2  0
 14 15  1  0
 15 16  1  0
 16 17  2  0
 17 18  1  0
 18 19  1  0
 19 20  1  0
 20 21  2  0
 21 22  1  0
 22 23  2  0
 23 24  1  0
 24 25  2  0
 15 26  2  0
  9 27  2  0
 27 28  1  0
 28 29  2  0
 29 30  1  0
 30 31  1  0
 29  3  1  0
 27  5  1  0
 26 11  1  0
 18 14  1  0
 25 20  1  0
M  END
>  <Compound_ID>  (761) 
CHEMBL1909380

>  <Molecule Name>  (761) 
GW282449A

>  <Molecular Weight>  (761) 
447.93

>  <AlogP>  (761) 
4.79

>  <Smiles>  (761) 
COc1cc2ncnc(Nc3ccc4c(cnn4Cc4ccccc4)c3)c2cc1OC

>  <Standard Type>  (761) 
Inhibition

>  <Standard Relation>  (761) 
'='

>  <Standard Units>  (761) 
%

>  <Standard Value>  (761) 
3.06

>  <Assay ChEMBL ID>  (761) 
CHEMBL1962241

>  <Assay Description>  (761) 
GSK_PKIS: ALK mean inhibition at 1 uM [Nanosyn]

>  <BAO Format ID>  (761) 
BAO_0000357

>  <BAO Label>  (761) 
single protein format

>  <Assay Organism>  (761) 
None

>  <Target ChEMBL ID>  (761) 
CHEMBL4247

>  <Target Name>  (761) 
ALK tyrosine kinase receptor

>  <Target Organism>  (761) 
Homo sapiens

>  <Target Type>  (761) 
SINGLE PROTEIN

>  <Document ChEMBL ID>  (761) 
CHEMBL1961873

>  <Source Description>  (761) 
GSK Published Kinase Inhibitor Set

>  <Document Journal>  (761) 
nan

>  <Document Year>  (761) 
nan

>  <Active>  (761) 
0.0

>  <bits>  (761) 
<rdkit.DataStructs.cDataStructs.ExplicitBitVect object at 0x000002422F1E8C10>

>  <Group>  (761) 
G2

$$$$

     RDKit          2D

 22 24  0  0  0  0  0  0  0  0999 V2000
    3.7500   -1.2990    0.0000 C   0  0  0  0  0  0  0  0  0  0  0  0
    3.0000    0.0000    0.0000 C   0  0  0  0  0  0  0  0  0  0  0  0
    3.7500    1.2990    0.0000 C   0  0  0  0  0  0  0  0  0  0  0  0
    1.5000    0.0000    0.0000 C   0  0  0  0  0  0  0  0  0  0  0  0
    0.7500   -1.2990    0.0000 C   0  0  0  0  0  0  0  0  0  0  0  0
   -0.7500   -1.2990    0.0000 C   0  0  0  0  0  0  0  0  0  0  0  0
   -1.5000    0.0000    0.0000 C   0  0  0  0  0  0  0  0  0  0  0  0
   -0.7500    1.2990    0.0000 C   0  0  0  0  0  0  0  0  0  0  0  0
    0.7500    1.2990    0.0000 C   0  0  0  0  0  0  0  0  0  0  0  0
   -1.5000    2.5981    0.0000 C   0  0  0  0  0  0  0  0  0  0  0  0
   -3.0000    2.5981    0.0000 C   0  0  0  0  0  0  0  0  0  0  0  0
   -3.7500    1.2990    0.0000 C   0  0  0  0  0  0  0  0  0  0  0  0
   -5.2500    1.2990    0.0000 C   0  0  0  0  0  0  0  0  0  0  0  0
   -6.6595    1.8121    0.0000 C   0  0  0  0  0  0  0  0  0  0  0  0
   -4.9895    2.7762    0.0000 C   0  0  0  0  0  0  0  0  0  0  0  0
   -3.5800    3.2893    0.0000 O   0  0  0  0  0  0  0  0  0  0  0  0
   -6.1386    3.7404    0.0000 O   0  0  0  0  0  0  0  0  0  0  0  0
   -6.0000    0.0000    0.0000 C   0  0  0  0  0  0  0  0  0  0  0  0
   -5.2500   -1.2990    0.0000 C   0  0  0  0  0  0  0  0  0  0  0  0
   -3.7500   -1.2990    0.0000 C   0  0  0  0  0  0  0  0  0  0  0  0
   -3.0000    0.0000    0.0000 C   0  0  0  0  0  0  0  0  0  0  0  0
   -2.2500   -1.2990    0.0000 C   0  0  0  0  0  0  0  0  0  0  0  0
  1  2  1  0
  2  3  1  0
  2  4  1  0
  4  5  2  0
  5  6  1  0
  6  7  2  0
  7  8  1  0
  8  9  2  0
  8 10  1  0
 10 11  1  0
 12 11  1  6
 12 13  1  0
 13 14  1  6
 13 15  1  0
 15 16  2  0
 15 17  1  0
 13 18  1  0
 18 19  1  0
 19 20  1  0
 20 21  1  0
 21 22  1  6
  9  4  1  0
 21 12  1  0
 21  7  1  0
M  END
>  <Compound_ID>  (762) 
CHEMBL12850

>  <Molecule Name>  (762) 
DEHYDROABIETIC ACID

>  <Molecular Weight>  (762) 
300.44

>  <AlogP>  (762) 
4.9

>  <Smiles>  (762) 
CC(C)c1ccc2c(c1)CC[C@H]1[C@](C)(C(=O)O)CCC[C@]21C

>  <Standard Type>  (762) 
Inhibition

>  <Standard Relation>  (762) 
'='

>  <Standard Units>  (762) 
%

>  <Standard Value>  (762) 
17.6

>  <Assay ChEMBL ID>  (762) 
CHEMBL4256119

>  <Assay Description>  (762) 
Inhibition of ALK (unknown origin) at 50 ug/ml by mobility shift assay relative to control

>  <BAO Format ID>  (762) 
BAO_0000357

>  <BAO Label>  (762) 
single protein format

>  <Assay Organism>  (762) 
Homo sapiens

>  <Target ChEMBL ID>  (762) 
CHEMBL4247

>  <Target Name>  (762) 
ALK tyrosine kinase receptor

>  <Target Organism>  (762) 
Homo sapiens

>  <Target Type>  (762) 
SINGLE PROTEIN

>  <Document ChEMBL ID>  (762) 
CHEMBL4251714

>  <Source Description>  (762) 
Scientific Literature

>  <Document Journal>  (762) 
J Nat Prod

>  <Document Year>  (762) 
2018.0

>  <Active>  (762) 
0.0

>  <bits>  (762) 
<rdkit.DataStructs.cDataStructs.ExplicitBitVect object at 0x000002422F1EA420>

>  <Group>  (762) 
G2

$$$$

     RDKit          2D

 30 33  0  0  0  0  0  0  0  0999 V2000
  -10.0849   -6.9740    0.0000 N   0  0  0  0  0  0  0  0  0  0  0  0
   -8.6583   -6.5105    0.0000 S   0  0  0  0  0  0  0  0  0  0  0  0
   -9.1218   -5.0839    0.0000 O   0  0  0  0  0  0  0  0  0  0  0  0
   -8.1948   -7.9371    0.0000 O   0  0  0  0  0  0  0  0  0  0  0  0
   -7.2317   -6.0469    0.0000 C   0  0  0  0  0  0  0  0  0  0  0  0
   -6.9199   -4.5797    0.0000 C   0  0  0  0  0  0  0  0  0  0  0  0
   -5.4933   -4.1162    0.0000 C   0  0  0  0  0  0  0  0  0  0  0  0
   -4.3786   -5.1199    0.0000 C   0  0  0  0  0  0  0  0  0  0  0  0
   -2.9520   -4.6564    0.0000 N   0  0  0  0  0  0  0  0  0  0  0  0
   -2.6401   -3.1891    0.0000 N   0  0  0  0  0  0  0  0  0  0  0  0
   -1.2135   -2.7256    0.0000 C   0  0  0  0  0  0  0  0  0  0  0  0
   -0.0000   -3.6073    0.0000 C   0  0  0  0  0  0  0  0  0  0  0  0
    0.0000   -5.1073    0.0000 O   0  0  0  0  0  0  0  0  0  0  0  0
    1.2135   -2.7256    0.0000 N   0  0  0  0  0  0  0  0  0  0  0  0
    0.7500   -1.2990    0.0000 C   0  0  0  0  0  0  0  0  0  0  0  0
    1.5000    0.0000    0.0000 C   0  0  0  0  0  0  0  0  0  0  0  0
    0.7500    1.2990    0.0000 C   0  0  0  0  0  0  0  0  0  0  0  0
   -0.7500    1.2990    0.0000 C   0  0  0  0  0  0  0  0  0  0  0  0
   -1.5000    0.0000    0.0000 C   0  0  0  0  0  0  0  0  0  0  0  0
   -3.0000    0.0000    0.0000 C   0  0  0  0  0  0  0  0  0  0  0  0
   -3.7500    1.2990    0.0000 C   0  0  0  0  0  0  0  0  0  0  0  0
   -5.2500    1.2990    0.0000 C   0  0  0  0  0  0  0  0  0  0  0  0
   -6.0000    2.5981    0.0000 C   0  0  0  0  0  0  0  0  0  0  0  0
   -7.5000    2.5981    0.0000 C   0  0  0  0  0  0  0  0  0  0  0  0
   -8.2500    1.2990    0.0000 N   0  0  0  0  0  0  0  0  0  0  0  0
   -7.5000    0.0000    0.0000 C   0  0  0  0  0  0  0  0  0  0  0  0
   -6.0000    0.0000    0.0000 C   0  0  0  0  0  0  0  0  0  0  0  0
   -0.7500   -1.2990    0.0000 C   0  0  0  0  0  0  0  0  0  0  0  0
   -4.6904   -6.5871    0.0000 C   0  0  0  0  0  0  0  0  0  0  0  0
   -6.1170   -7.0506    0.0000 C   0  0  0  0  0  0  0  0  0  0  0  0
  1  2  1  0
  2  3  2  0
  2  4  2  0
  2  5  1  0
  5  6  2  0
  6  7  1  0
  7  8  2  0
  8  9  1  0
  9 10  1  0
 10 11  2  0
 11 12  1  0
 12 13  2  0
 12 14  1  0
 14 15  1  0
 15 16  2  0
 16 17  1  0
 17 18  2  0
 18 19  1  0
 19 20  1  0
 20 21  1  0
 21 22  1  0
 22 23  2  0
 23 24  1  0
 24 25  2  0
 25 26  1  0
 26 27  2  0
 19 28  2  0
  8 29  1  0
 29 30  2  0
 30  5  1  0
 28 11  1  0
 28 15  1  0
 27 22  1  0
M  END
>  <Compound_ID>  (763) 
CHEMBL1909399

>  <Molecule Name>  (763) 
GW352430A

>  <Molecular Weight>  (763) 
457.94

>  <AlogP>  (763) 
2.28

>  <Smiles>  (763) 
NS(=O)(=O)c1ccc(N/N=C2\C(=O)Nc3cccc(CCc4ccncc4)c32)cc1

>  <Standard Type>  (763) 
Inhibition

>  <Standard Relation>  (763) 
'='

>  <Standard Units>  (763) 
%

>  <Standard Value>  (763) 
1.31

>  <Assay ChEMBL ID>  (763) 
CHEMBL1962240

>  <Assay Description>  (763) 
GSK_PKIS: ALK mean inhibition at 0.1 uM [Nanosyn]

>  <BAO Format ID>  (763) 
BAO_0000357

>  <BAO Label>  (763) 
single protein format

>  <Assay Organism>  (763) 
None

>  <Target ChEMBL ID>  (763) 
CHEMBL4247

>  <Target Name>  (763) 
ALK tyrosine kinase receptor

>  <Target Organism>  (763) 
Homo sapiens

>  <Target Type>  (763) 
SINGLE PROTEIN

>  <Document ChEMBL ID>  (763) 
CHEMBL1961873

>  <Source Description>  (763) 
GSK Published Kinase Inhibitor Set

>  <Document Journal>  (763) 
nan

>  <Document Year>  (763) 
nan

>  <Active>  (763) 
0.0

>  <bits>  (763) 
<rdkit.DataStructs.cDataStructs.ExplicitBitVect object at 0x000002422F1E99A0>

>  <Group>  (763) 
G2

$$$$

     RDKit          2D

 35 37  0  0  0  0  0  0  0  0999 V2000
    3.0000    0.0000    0.0000 C   0  0  0  0  0  0  0  0  0  0  0  0
    1.5000    0.0000    0.0000 C   0  0  0  0  0  0  0  0  0  0  0  0
    0.7500   -1.2990    0.0000 C   0  0  0  0  0  0  0  0  0  0  0  0
   -0.7500   -1.2990    0.0000 C   0  0  0  0  0  0  0  0  0  0  0  0
   -1.5000    0.0000    0.0000 C   0  0  0  0  0  0  0  0  0  0  0  0
   -0.7500    1.2990    0.0000 C   0  0  0  0  0  0  0  0  0  0  0  0
    0.7500    1.2990    0.0000 C   0  0  0  0  0  0  0  0  0  0  0  0
    1.5000    2.5981    0.0000 N   0  0  0  0  0  0  0  0  0  0  0  0
    0.7500    3.8971    0.0000 C   0  0  0  0  0  0  0  0  0  0  0  0
    1.5000    5.1962    0.0000 N   0  0  0  0  0  0  0  0  0  0  0  0
    0.7500    6.4952    0.0000 C   0  0  0  0  0  0  0  0  0  0  0  0
    1.5000    7.7942    0.0000 N   0  0  0  0  0  0  0  0  0  0  0  0
    3.0000    7.7942    0.0000 C   0  0  0  0  0  0  0  0  0  0  0  0
    3.7500    6.4952    0.0000 C   0  0  0  0  0  0  0  0  0  0  0  0
    5.2500    6.4952    0.0000 C   0  0  0  0  0  0  0  0  0  0  0  0
    6.0000    7.7942    0.0000 C   0  0  0  0  0  0  0  0  0  0  0  0
    7.5000    7.7942    0.0000 N   0  0  0  0  0  0  0  0  0  0  0  0
    8.2500    6.4952    0.0000 C   0  0  0  0  0  0  0  0  0  0  0  0
    7.5000    5.1962    0.0000 O   0  0  0  0  0  0  0  0  0  0  0  0
    9.7500    6.4952    0.0000 C   0  0  0  0  0  0  0  0  0  0  0  0
   10.5000    5.1962    0.0000 C   0  0  0  0  0  0  0  0  0  0  0  0
   12.0000    5.1962    0.0000 C   0  0  0  0  0  0  0  0  0  0  0  0
   12.7500    3.8971    0.0000 C   0  0  0  0  0  0  0  0  0  0  0  0
   14.2500    3.8971    0.0000 C   0  0  0  0  0  0  0  0  0  0  0  0
   15.0000    2.5981    0.0000 C   0  0  0  0  0  0  0  0  0  0  0  0
   16.5000    2.5981    0.0000 C   0  0  0  0  0  0  0  0  0  0  0  0
   17.2500    3.8971    0.0000 O   0  0  0  0  0  0  0  0  0  0  0  0
   17.2500    1.2990    0.0000 N   0  0  0  0  0  0  0  0  0  0  0  0
   18.7500    1.2990    0.0000 O   0  0  0  0  0  0  0  0  0  0  0  0
    5.2500    9.0933    0.0000 C   0  0  0  0  0  0  0  0  0  0  0  0
    3.7500    9.0933    0.0000 C   0  0  0  0  0  0  0  0  0  0  0  0
   -0.7500    6.4952    0.0000 N   0  0  0  0  0  0  0  0  0  0  0  0
   -1.5000    5.1962    0.0000 C   0  0  0  0  0  0  0  0  0  0  0  0
   -0.7500    3.8971    0.0000 C   0  0  0  0  0  0  0  0  0  0  0  0
   -1.5000    2.5981    0.0000 Cl  0  0  0  0  0  0  0  0  0  0  0  0
  1  2  1  0
  2  3  2  0
  3  4  1  0
  4  5  2  0
  5  6  1  0
  6  7  2  0
  7  8  1  0
  8  9  1  0
  9 10  2  0
 10 11  1  0
 11 12  1  0
 12 13  1  0
 13 14  2  0
 14 15  1  0
 15 16  2  0
 16 17  1  0
 17 18  1  0
 18 19  2  0
 18 20  1  0
 20 21  1  0
 21 22  1  0
 22 23  1  0
 23 24  1  0
 24 25  1  0
 25 26  1  0
 26 27  2  0
 26 28  1  0
 28 29  1  0
 16 30  1  0
 30 31  2  0
 11 32  2  0
 32 33  1  0
 33 34  2  0
 34 35  1  0
  7  2  1  0
 34  9  1  0
 31 13  1  0
M  END
>  <Compound_ID>  (764) 
CHEMBL4866961

>  <Molecule Name>  (764) 
nan

>  <Molecular Weight>  (764) 
497.0

>  <AlogP>  (764) 
5.71

>  <Smiles>  (764) 
Cc1ccccc1Nc1nc(Nc2ccc(NC(=O)CCCCCCC(=O)NO)cc2)ncc1Cl

>  <Standard Type>  (764) 
Inhibition

>  <Standard Relation>  (764) 
'='

>  <Standard Units>  (764) 
%

>  <Standard Value>  (764) 
1.2

>  <Assay ChEMBL ID>  (764) 
CHEMBL4828941

>  <Assay Description>  (764) 
Inhibition of ALK (unknown origin) at 10 nM preincubated for 10 mins followed by addition of substrate and ATP for 25 mins by caliper EZ reader method

>  <BAO Format ID>  (764) 
BAO_0000357

>  <BAO Label>  (764) 
single protein format

>  <Assay Organism>  (764) 
Homo sapiens

>  <Target ChEMBL ID>  (764) 
CHEMBL4247

>  <Target Name>  (764) 
ALK tyrosine kinase receptor

>  <Target Organism>  (764) 
Homo sapiens

>  <Target Type>  (764) 
SINGLE PROTEIN

>  <Document ChEMBL ID>  (764) 
CHEMBL4828709

>  <Source Description>  (764) 
Scientific Literature

>  <Document Journal>  (764) 
Eur J Med Chem

>  <Document Year>  (764) 
2021.0

>  <Active>  (764) 
0.0

>  <bits>  (764) 
<rdkit.DataStructs.cDataStructs.ExplicitBitVect object at 0x000002422F1EAEA0>

>  <Group>  (764) 
G2

$$$$

     RDKit          2D

 31 34  0  0  0  0  0  0  0  0999 V2000
    3.0000   -2.5981    0.0000 O   0  0  0  0  0  0  0  0  0  0  0  0
    1.5000   -2.5981    0.0000 C   0  0  0  0  0  0  0  0  0  0  0  0
    0.7500   -3.8971    0.0000 N   0  0  0  0  0  0  0  0  0  0  0  0
    1.5000   -5.1962    0.0000 C   0  0  0  0  0  0  0  0  0  0  0  0
    3.0000   -5.1962    0.0000 C   0  0  0  0  0  0  0  0  0  0  0  0
    3.7500   -6.4952    0.0000 O   0  0  0  0  0  0  0  0  0  0  0  0
    0.7500   -6.4952    0.0000 C   0  0  0  0  0  0  0  0  0  0  0  0
   -0.7500   -6.4952    0.0000 C   0  0  0  0  0  0  0  0  0  0  0  0
   -1.5000   -7.7942    0.0000 C   0  0  0  0  0  0  0  0  0  0  0  0
   -0.7500   -9.0933    0.0000 C   0  0  0  0  0  0  0  0  0  0  0  0
   -1.5000  -10.3923    0.0000 Cl  0  0  0  0  0  0  0  0  0  0  0  0
    0.7500   -9.0933    0.0000 C   0  0  0  0  0  0  0  0  0  0  0  0
    1.5000  -10.3923    0.0000 F   0  0  0  0  0  0  0  0  0  0  0  0
    1.5000   -7.7942    0.0000 C   0  0  0  0  0  0  0  0  0  0  0  0
    0.7500   -1.2990    0.0000 N   0  0  0  0  0  0  0  0  0  0  0  0
    1.5000    0.0000    0.0000 C   0  0  0  0  0  0  0  0  0  0  0  0
    0.7500    1.2990    0.0000 C   0  0  0  0  0  0  0  0  0  0  0  0
   -0.7500    1.2990    0.0000 C   0  0  0  0  0  0  0  0  0  0  0  0
   -1.5000    2.5981    0.0000 C   0  0  0  0  0  0  0  0  0  0  0  0
   -3.0000    2.5981    0.0000 N   0  0  0  0  0  0  0  0  0  0  0  0
   -3.7500    1.2990    0.0000 C   0  0  0  0  0  0  0  0  0  0  0  0
   -5.2500    1.2990    0.0000 N   0  0  0  0  0  0  0  0  0  0  0  0
   -6.0000    2.5981    0.0000 C   0  0  0  0  0  0  0  0  0  0  0  0
   -5.2500    3.8971    0.0000 C   0  0  0  0  0  0  0  0  0  0  0  0
   -6.0000    5.1962    0.0000 C   0  0  0  0  0  0  0  0  0  0  0  0
   -7.5000    5.1962    0.0000 O   0  0  0  0  0  0  0  0  0  0  0  0
   -8.2500    3.8971    0.0000 C   0  0  0  0  0  0  0  0  0  0  0  0
   -7.5000    2.5981    0.0000 C   0  0  0  0  0  0  0  0  0  0  0  0
   -3.0000    0.0000    0.0000 N   0  0  0  0  0  0  0  0  0  0  0  0
   -1.5000    0.0000    0.0000 C   0  0  0  0  0  0  0  0  0  0  0  0
   -0.7500   -1.2990    0.0000 C   0  0  0  0  0  0  0  0  0  0  0  0
  1  2  2  0
  2  3  1  0
  3  4  1  0
  4  5  1  6
  5  6  1  0
  4  7  1  0
  7  8  2  0
  8  9  1  0
  9 10  2  0
 10 11  1  0
 10 12  1  0
 12 13  1  0
 12 14  2  0
  2 15  1  0
 15 16  1  0
 16 17  1  0
 17 18  1  0
 18 19  2  0
 19 20  1  0
 20 21  2  0
 21 22  1  0
 22 23  1  0
 23 24  1  0
 24 25  1  0
 25 26  1  0
 26 27  1  0
 27 28  1  0
 21 29  1  0
 29 30  2  0
 30 31  1  0
 14  7  1  0
 31 15  1  0
 30 18  1  0
 28 23  1  0
M  END
>  <Compound_ID>  (765) 
CHEMBL3298678

>  <Molecule Name>  (765) 
nan

>  <Molecular Weight>  (765) 
449.91

>  <AlogP>  (765) 
2.66

>  <Smiles>  (765) 
O=C(N[C@H](CO)c1ccc(Cl)c(F)c1)N1CCc2cnc(NC3CCOCC3)nc2C1

>  <Standard Type>  (765) 
Inhibition

>  <Standard Relation>  (765) 
'='

>  <Standard Units>  (765) 
%

>  <Standard Value>  (765) 
1.2

>  <Assay ChEMBL ID>  (765) 
CHEMBL3361856

>  <Assay Description>  (765) 
Inhibition of ALK (unknown origin) at 100 nM

>  <BAO Format ID>  (765) 
BAO_0000357

>  <BAO Label>  (765) 
single protein format

>  <Assay Organism>  (765) 
Homo sapiens

>  <Target ChEMBL ID>  (765) 
CHEMBL4247

>  <Target Name>  (765) 
ALK tyrosine kinase receptor

>  <Target Organism>  (765) 
Homo sapiens

>  <Target Type>  (765) 
SINGLE PROTEIN

>  <Document ChEMBL ID>  (765) 
CHEMBL3297705

>  <Source Description>  (765) 
Scientific Literature

>  <Document Journal>  (765) 
Bioorg Med Chem Lett

>  <Document Year>  (765) 
2014.0

>  <Active>  (765) 
0.0

>  <bits>  (765) 
<rdkit.DataStructs.cDataStructs.ExplicitBitVect object at 0x000002422F1EA8F0>

>  <Group>  (765) 
G2

$$$$

     RDKit          2D

 36 38  0  0  0  0  0  0  0  0999 V2000
    3.7500   -1.2990    0.0000 C   0  0  0  0  0  0  0  0  0  0  0  0
    3.0000    0.0000    0.0000 O   0  0  0  0  0  0  0  0  0  0  0  0
    1.5000    0.0000    0.0000 C   0  0  0  0  0  0  0  0  0  0  0  0
    0.7500   -1.2990    0.0000 C   0  0  0  0  0  0  0  0  0  0  0  0
   -0.7500   -1.2990    0.0000 C   0  0  0  0  0  0  0  0  0  0  0  0
   -1.5000    0.0000    0.0000 C   0  0  0  0  0  0  0  0  0  0  0  0
   -0.7500    1.2990    0.0000 C   0  0  0  0  0  0  0  0  0  0  0  0
   -1.5000    2.5981    0.0000 N   0  0  0  0  0  0  0  0  0  0  0  0
   -0.7500    3.8971    0.0000 C   0  0  0  0  0  0  0  0  0  0  0  0
    0.7500    3.8971    0.0000 N   0  0  0  0  0  0  0  0  0  0  0  0
    1.5000    5.1962    0.0000 C   0  0  0  0  0  0  0  0  0  0  0  0
    3.0000    5.1962    0.0000 N   0  0  0  0  0  0  0  0  0  0  0  0
    3.7500    3.8971    0.0000 C   0  0  0  0  0  0  0  0  0  0  0  0
    3.0000    2.5981    0.0000 C   0  0  0  0  0  0  0  0  0  0  0  0
    3.7500    1.2990    0.0000 C   0  0  0  0  0  0  0  0  0  0  0  0
    5.2500    1.2990    0.0000 C   0  0  0  0  0  0  0  0  0  0  0  0
    6.0000    0.0000    0.0000 N   0  0  0  0  0  0  0  0  0  0  0  0
    7.5000    0.0000    0.0000 C   0  0  0  0  0  0  0  0  0  0  0  0
    8.2500    1.2990    0.0000 O   0  0  0  0  0  0  0  0  0  0  0  0
    8.2500   -1.2990    0.0000 C   0  0  0  0  0  0  0  0  0  0  0  0
    9.7500   -1.2990    0.0000 C   0  0  0  0  0  0  0  0  0  0  0  0
   10.5000   -2.5981    0.0000 C   0  0  0  0  0  0  0  0  0  0  0  0
   12.0000   -2.5981    0.0000 C   0  0  0  0  0  0  0  0  0  0  0  0
   12.7500   -3.8971    0.0000 C   0  0  0  0  0  0  0  0  0  0  0  0
   14.2500   -3.8971    0.0000 C   0  0  0  0  0  0  0  0  0  0  0  0
   15.0000   -5.1962    0.0000 C   0  0  0  0  0  0  0  0  0  0  0  0
   14.2500   -6.4952    0.0000 O   0  0  0  0  0  0  0  0  0  0  0  0
   16.5000   -5.1962    0.0000 N   0  0  0  0  0  0  0  0  0  0  0  0
   17.2500   -6.4952    0.0000 O   0  0  0  0  0  0  0  0  0  0  0  0
    6.0000    2.5981    0.0000 C   0  0  0  0  0  0  0  0  0  0  0  0
    5.2500    3.8971    0.0000 C   0  0  0  0  0  0  0  0  0  0  0  0
    0.7500    6.4952    0.0000 N   0  0  0  0  0  0  0  0  0  0  0  0
   -0.7500    6.4952    0.0000 C   0  0  0  0  0  0  0  0  0  0  0  0
   -1.5000    5.1962    0.0000 C   0  0  0  0  0  0  0  0  0  0  0  0
   -3.0000    5.1962    0.0000 Cl  0  0  0  0  0  0  0  0  0  0  0  0
    0.7500    1.2990    0.0000 C   0  0  0  0  0  0  0  0  0  0  0  0
  1  2  1  0
  2  3  1  0
  3  4  2  0
  4  5  1  0
  5  6  2  0
  6  7  1  0
  7  8  1  0
  8  9  1  0
  9 10  2  0
 10 11  1  0
 11 12  1  0
 12 13  1  0
 13 14  2  0
 14 15  1  0
 15 16  2  0
 16 17  1  0
 17 18  1  0
 18 19  2  0
 18 20  1  0
 20 21  1  0
 21 22  1  0
 22 23  1  0
 23 24  1  0
 24 25  1  0
 25 26  1  0
 26 27  2  0
 26 28  1  0
 28 29  1  0
 16 30  1  0
 30 31  2  0
 11 32  2  0
 32 33  1  0
 33 34  2  0
 34 35  1  0
  7 36  2  0
 36  3  1  0
 34  9  1  0
 31 13  1  0
M  END
>  <Compound_ID>  (766) 
CHEMBL4846440

>  <Molecule Name>  (766) 
nan

>  <Molecular Weight>  (766) 
513.0

>  <AlogP>  (766) 
5.41

>  <Smiles>  (766) 
COc1cccc(Nc2nc(Nc3ccc(NC(=O)CCCCCCC(=O)NO)cc3)ncc2Cl)c1

>  <Standard Type>  (766) 
Inhibition

>  <Standard Relation>  (766) 
'='

>  <Standard Units>  (766) 
%

>  <Standard Value>  (766) 
20.0

>  <Assay ChEMBL ID>  (766) 
CHEMBL4828942

>  <Assay Description>  (766) 
Inhibition of ALK (unknown origin) at 100 nM preincubated for 10 mins followed by addition of substrate and ATP for 25 mins by caliper EZ reader method

>  <BAO Format ID>  (766) 
BAO_0000357

>  <BAO Label>  (766) 
single protein format

>  <Assay Organism>  (766) 
Homo sapiens

>  <Target ChEMBL ID>  (766) 
CHEMBL4247

>  <Target Name>  (766) 
ALK tyrosine kinase receptor

>  <Target Organism>  (766) 
Homo sapiens

>  <Target Type>  (766) 
SINGLE PROTEIN

>  <Document ChEMBL ID>  (766) 
CHEMBL4828709

>  <Source Description>  (766) 
Scientific Literature

>  <Document Journal>  (766) 
Eur J Med Chem

>  <Document Year>  (766) 
2021.0

>  <Active>  (766) 
0.0

>  <bits>  (766) 
<rdkit.DataStructs.cDataStructs.ExplicitBitVect object at 0x000002422F1E9070>

>  <Group>  (766) 
G2

$$$$

     RDKit          2D

 27 31  0  0  0  0  0  0  0  0999 V2000
   -1.5000   -5.1962    0.0000 Cl  0  0  0  0  0  0  0  0  0  0  0  0
   -3.0000   -5.1962    0.0000 C   0  0  0  0  0  0  0  0  0  0  0  0
   -3.7500   -6.4952    0.0000 C   0  0  0  0  0  0  0  0  0  0  0  0
   -5.2500   -6.4952    0.0000 C   0  0  0  0  0  0  0  0  0  0  0  0
   -6.0000   -5.1962    0.0000 C   0  0  0  0  0  0  0  0  0  0  0  0
   -5.2500   -3.8971    0.0000 C   0  0  0  0  0  0  0  0  0  0  0  0
   -3.7500   -3.8971    0.0000 C   0  0  0  0  0  0  0  0  0  0  0  0
   -3.0000   -2.5981    0.0000 N   0  0  0  0  0  0  0  0  0  0  0  0
   -1.5000   -2.5981    0.0000 C   0  0  0  0  0  0  0  0  0  0  0  0
   -0.7500   -3.8971    0.0000 N   0  0  0  0  0  0  0  0  0  0  0  0
    0.7500   -3.8971    0.0000 C   0  0  0  0  0  0  0  0  0  0  0  0
    1.5000   -5.1962    0.0000 C   0  0  0  0  0  0  0  0  0  0  0  0
    0.7500   -6.4952    0.0000 C   0  0  0  0  0  0  0  0  0  0  0  0
    1.3601   -7.8655    0.0000 N   0  0  0  0  0  0  0  0  0  0  0  0
    0.2454   -8.8692    0.0000 N   0  0  0  0  0  0  0  0  0  0  0  0
   -1.0537   -8.1192    0.0000 C   0  0  0  0  0  0  0  0  0  0  0  0
   -0.7418   -6.6520    0.0000 N   0  0  0  0  0  0  0  0  0  0  0  0
    3.0000   -5.1962    0.0000 C   0  0  0  0  0  0  0  0  0  0  0  0
    3.7500   -3.8971    0.0000 C   0  0  0  0  0  0  0  0  0  0  0  0
    3.0000   -2.5981    0.0000 C   0  0  0  0  0  0  0  0  0  0  0  0
    1.5000   -2.5981    0.0000 C   0  0  0  0  0  0  0  0  0  0  0  0
    0.7500   -1.2990    0.0000 C   0  0  0  0  0  0  0  0  0  0  0  0
    1.5000    0.0000    0.0000 C   0  0  0  0  0  0  0  0  0  0  0  0
    0.7500    1.2990    0.0000 N   0  0  0  0  0  0  0  0  0  0  0  0
   -0.7500    1.2990    0.0000 C   0  0  0  0  0  0  0  0  0  0  0  0
   -1.5000    0.0000    0.0000 C   0  0  0  0  0  0  0  0  0  0  0  0
   -0.7500   -1.2990    0.0000 C   0  0  0  0  0  0  0  0  0  0  0  0
  1  2  1  0
  2  3  2  0
  3  4  1  0
  4  5  2  0
  5  6  1  0
  6  7  2  0
  7  8  1  0
  8  9  1  0
  9 10  2  0
 10 11  1  0
 11 12  2  0
 12 13  1  0
 13 14  2  0
 14 15  1  0
 15 16  2  0
 16 17  1  0
 12 18  1  0
 18 19  2  0
 19 20  1  0
 20 21  2  0
 21 22  1  0
 22 23  2  0
 23 24  1  0
 24 25  2  0
 25 26  1  0
 26 27  2  0
  7  2  1  0
 27  9  1  0
 21 11  1  0
 27 22  1  0
 17 13  1  0
M  END
>  <Compound_ID>  (767) 
CHEMBL1915438

>  <Molecule Name>  (767) 
nan

>  <Molecular Weight>  (767) 
372.82

>  <AlogP>  (767) 
4.97

>  <Smiles>  (767) 
Clc1ccccc1Nc1nc2c(-c3nnc[nH]3)cccc2c2cnccc12

>  <Standard Type>  (767) 
Inhibition

>  <Standard Relation>  (767) 
'='

>  <Standard Units>  (767) 
%

>  <Standard Value>  (767) 
-15.0

>  <Assay ChEMBL ID>  (767) 
CHEMBL1919420

>  <Assay Description>  (767) 
Inhibition of human recombinant ALK at 0.5 uM by radiometric filter-binding assay

>  <BAO Format ID>  (767) 
BAO_0000357

>  <BAO Label>  (767) 
single protein format

>  <Assay Organism>  (767) 
Homo sapiens

>  <Target ChEMBL ID>  (767) 
CHEMBL4247

>  <Target Name>  (767) 
ALK tyrosine kinase receptor

>  <Target Organism>  (767) 
Homo sapiens

>  <Target Type>  (767) 
SINGLE PROTEIN

>  <Document ChEMBL ID>  (767) 
CHEMBL1914433

>  <Source Description>  (767) 
Scientific Literature

>  <Document Journal>  (767) 
Bioorg Med Chem Lett

>  <Document Year>  (767) 
2011.0

>  <Active>  (767) 
0.0

>  <bits>  (767) 
<rdkit.DataStructs.cDataStructs.ExplicitBitVect object at 0x000002422F1E9310>

>  <Group>  (767) 
G2

$$$$

     RDKit          2D

 16 17  0  0  0  0  0  0  0  0999 V2000
    3.7500   -1.2990    0.0000 C   0  0  0  0  0  0  0  0  0  0  0  0
    3.0000    0.0000    0.0000 C   0  0  0  0  0  0  0  0  0  0  0  0
    3.7500    1.2990    0.0000 C   0  0  0  0  0  0  0  0  0  0  0  0
    1.5000    0.0000    0.0000 C   0  0  0  0  0  0  0  0  0  0  0  0
    0.7500   -1.2990    0.0000 C   0  0  0  0  0  0  0  0  0  0  0  0
   -0.7500   -1.2990    0.0000 C   0  0  0  0  0  0  0  0  0  0  0  0
   -1.5000   -2.5981    0.0000 N   0  0  0  0  0  0  0  0  0  0  0  0
   -0.8899   -3.9684    0.0000 C   0  0  0  0  0  0  0  0  0  0  0  0
   -2.0046   -4.9721    0.0000 C   0  0  0  0  0  0  0  0  0  0  0  0
   -3.3037   -4.2221    0.0000 C   0  0  0  0  0  0  0  0  0  0  0  0
   -4.6740   -4.8322    0.0000 N   0  0  0  0  0  0  0  0  0  0  0  0
   -2.9918   -2.7549    0.0000 C   0  0  0  0  0  0  0  0  0  0  0  0
   -1.5000    0.0000    0.0000 N   0  0  0  0  0  0  0  0  0  0  0  0
   -0.7500    1.2990    0.0000 C   0  0  0  0  0  0  0  0  0  0  0  0
   -1.5000    2.5981    0.0000 N   0  0  0  0  0  0  0  0  0  0  0  0
    0.7500    1.2990    0.0000 N   0  0  0  0  0  0  0  0  0  0  0  0
  1  2  1  0
  2  3  1  0
  2  4  1  0
  4  5  2  0
  5  6  1  0
  6  7  1  0
  7  8  1  0
  8  9  1  0
  9 10  1  0
 10 11  1  1
 10 12  1  0
  6 13  2  0
 13 14  1  0
 14 15  1  0
 14 16  2  0
 16  4  1  0
 12  7  1  0
M  END
>  <Compound_ID>  (768) 
CHEMBL3236549

>  <Molecule Name>  (768) 
JNJ-39758979

>  <Molecular Weight>  (768) 
221.31

>  <AlogP>  (768) 
0.72

>  <Smiles>  (768) 
CC(C)c1cc(N2CC[C@@H](N)C2)nc(N)n1

>  <Standard Type>  (768) 
Inhibition

>  <Standard Relation>  (768) 
'='

>  <Standard Units>  (768) 
%

>  <Standard Value>  (768) 
12.0

>  <Assay ChEMBL ID>  (768) 
CHEMBL5058895

>  <Assay Description>  (768) 
ALK(h) Millipore kinase panel

>  <BAO Format ID>  (768) 
BAO_0000357

>  <BAO Label>  (768) 
single protein format

>  <Assay Organism>  (768) 
Homo sapiens

>  <Target ChEMBL ID>  (768) 
CHEMBL4247

>  <Target Name>  (768) 
ALK tyrosine kinase receptor

>  <Target Organism>  (768) 
Homo sapiens

>  <Target Type>  (768) 
SINGLE PROTEIN

>  <Document ChEMBL ID>  (768) 
CHEMBL5058644

>  <Source Description>  (768) 
Donated Chemical Probes - SGC Frankfurt

>  <Document Journal>  (768) 
nan

>  <Document Year>  (768) 
2022.0

>  <Active>  (768) 
0.0

>  <bits>  (768) 
<rdkit.DataStructs.cDataStructs.ExplicitBitVect object at 0x000002422F1EAB90>

>  <Group>  (768) 
G2

$$$$

     RDKit          2D

 33 37  0  0  0  0  0  0  0  0999 V2000
    1.6849    2.1132    0.0000 H   0  0  0  0  0  0  0  0  0  0  0  0
    2.6491    0.9642    0.0000 C   0  0  0  0  0  0  0  0  0  0  0  0
    3.2321    0.4205    0.0000 H   0  0  0  0  0  0  0  0  0  0  0  0
    3.7981    1.9284    0.0000 H   0  0  0  0  0  0  0  0  0  0  0  0
    1.5000    0.0000    0.0000 C   0  0  0  0  0  0  0  0  0  0  0  0
    2.6491   -0.9642    0.0000 C   0  0  0  0  0  0  0  0  0  0  0  0
    3.2321   -0.4205    0.0000 H   0  0  0  0  0  0  0  0  0  0  0  0
    1.6849   -2.1132    0.0000 H   0  0  0  0  0  0  0  0  0  0  0  0
    3.7981   -1.9284    0.0000 H   0  0  0  0  0  0  0  0  0  0  0  0
    0.7500   -1.2990    0.0000 C   0  0  0  0  0  0  0  0  0  0  0  0
   -0.7500   -1.2990    0.0000 N   0  0  0  0  0  0  0  0  0  0  0  0
   -1.7537   -2.4138    0.0000 N   0  0  0  0  0  0  0  0  0  0  0  0
   -3.1240   -1.8037    0.0000 C   0  0  0  0  0  0  0  0  0  0  0  0
   -4.4231   -2.5537    0.0000 C   0  0  0  0  0  0  0  0  0  0  0  0
   -5.7221   -1.8037    0.0000 C   0  0  0  0  0  0  0  0  0  0  0  0
   -7.0211   -2.5537    0.0000 C   0  0  0  0  0  0  0  0  0  0  0  0
   -7.0211   -4.0537    0.0000 C   0  0  0  0  0  0  0  0  0  0  0  0
   -8.3202   -4.8037    0.0000 F   0  0  0  0  0  0  0  0  0  0  0  0
   -5.7221   -4.8037    0.0000 C   0  0  0  0  0  0  0  0  0  0  0  0
   -4.4231   -4.0537    0.0000 N   0  0  0  0  0  0  0  0  0  0  0  0
   -2.9672   -0.3119    0.0000 C   0  0  0  0  0  0  0  0  0  0  0  0
   -4.0819    0.6918    0.0000 C   0  0  0  0  0  0  0  0  0  0  0  0
   -3.7701    2.1590    0.0000 C   0  0  0  0  0  0  0  0  0  0  0  0
   -4.8848    3.1627    0.0000 C   0  0  0  0  0  0  0  0  0  0  0  0
   -6.3114    2.6992    0.0000 N   0  0  0  0  0  0  0  0  0  0  0  0
   -6.6232    1.2320    0.0000 C   0  0  0  0  0  0  0  0  0  0  0  0
   -7.9223    0.4820    0.0000 N   0  0  0  0  0  0  0  0  0  0  0  0
   -7.6104   -0.9852    0.0000 N   0  0  0  0  0  0  0  0  0  0  0  0
   -6.1186   -1.1420    0.0000 C   0  0  0  0  0  0  0  0  0  0  0  0
   -5.5085    0.2283    0.0000 C   0  0  0  0  0  0  0  0  0  0  0  0
   -1.5000    0.0000    0.0000 C   0  0  0  0  0  0  0  0  0  0  0  0
   -0.7500    1.2990    0.0000 C   0  0  0  0  0  0  0  0  0  0  0  0
    0.7500    1.2990    0.0000 O   0  0  0  0  0  0  0  0  0  0  0  0
  1  2  1  0
  2  3  1  0
  2  4  1  0
  2  5  1  0
  5  6  1  0
  6  7  1  0
  6  8  1  0
  6  9  1  0
  5 10  1  0
 10 11  1  0
 11 12  1  0
 12 13  2  0
 13 14  1  0
 14 15  2  0
 15 16  1  0
 16 17  2  0
 17 18  1  0
 17 19  1  0
 19 20  2  0
 13 21  1  0
 21 22  1  0
 22 23  2  0
 23 24  1  0
 24 25  2  0
 25 26  1  0
 26 27  1  0
 27 28  1  0
 28 29  2  0
 29 30  1  0
 21 31  2  0
 31 32  1  0
 32 33  1  0
 33  5  1  0
 31 11  1  0
 20 14  1  0
 30 22  1  0
 30 26  2  0
M  ISO  6   1   2   3   2   4   2   7   2   8   2   9   2
M  END
>  <Compound_ID>  (769) 
CHEMBL5081774

>  <Molecule Name>  (769) 
nan

>  <Molecular Weight>  (769) 
370.42

>  <AlogP>  (769) 
3.33

>  <Smiles>  (769) 
[2H]C([2H])([2H])C1(C([2H])([2H])[2H])Cn2nc(-c3ccc(F)cn3)c(-c3ccnc4[nH]ncc34)c2CO1

>  <Standard Type>  (769) 
Inhibition

>  <Standard Relation>  (769) 
'='

>  <Standard Units>  (769) 
%

>  <Standard Value>  (769) 
-13.0

>  <Assay ChEMBL ID>  (769) 
CHEMBL5059016

>  <Assay Description>  (769) 
ALK(h) Kinase panel

>  <BAO Format ID>  (769) 
BAO_0000357

>  <BAO Label>  (769) 
single protein format

>  <Assay Organism>  (769) 
Homo sapiens

>  <Target ChEMBL ID>  (769) 
CHEMBL4247

>  <Target Name>  (769) 
ALK tyrosine kinase receptor

>  <Target Organism>  (769) 
Homo sapiens

>  <Target Type>  (769) 
SINGLE PROTEIN

>  <Document ChEMBL ID>  (769) 
CHEMBL5058645

>  <Source Description>  (769) 
Donated Chemical Probes - SGC Frankfurt

>  <Document Journal>  (769) 
nan

>  <Document Year>  (769) 
2022.0

>  <Active>  (769) 
0.0

>  <bits>  (769) 
<rdkit.DataStructs.cDataStructs.ExplicitBitVect object at 0x000002422F1E9AF0>

>  <Group>  (769) 
G2

$$$$
