
     RDKit          2D

 24 27  0  0  0  0  0  0  0  0999 V2000
    3.0000   -5.1962    0.0000 C   0  0  0  0  0  0  0  0  0  0  0  0
    1.5000   -5.1962    0.0000 O   0  0  0  0  0  0  0  0  0  0  0  0
    0.7500   -3.8971    0.0000 C   0  0  0  0  0  0  0  0  0  0  0  0
    1.5000   -2.5981    0.0000 C   0  0  0  0  0  0  0  0  0  0  0  0
    0.7500   -1.2990    0.0000 C   0  0  0  0  0  0  0  0  0  0  0  0
    1.5000    0.0000    0.0000 N   0  0  0  0  0  0  0  0  0  0  0  0
    0.7500    1.2990    0.0000 C   0  0  0  0  0  0  0  0  0  0  0  0
   -0.7500    1.2990    0.0000 C   0  0  0  0  0  0  0  0  0  0  0  0
   -1.5000    0.0000    0.0000 C   0  0  0  0  0  0  0  0  0  0  0  0
   -0.7500   -1.2990    0.0000 C   0  0  0  0  0  0  0  0  0  0  0  0
   -1.5000   -2.5981    0.0000 C   0  0  0  0  0  0  0  0  0  0  0  0
   -0.7500   -3.8971    0.0000 C   0  0  0  0  0  0  0  0  0  0  0  0
   -1.5000   -5.1962    0.0000 N   0  0  0  0  0  0  0  0  0  0  0  0
   -3.0000   -5.1962    0.0000 C   0  0  0  0  0  0  0  0  0  0  0  0
   -3.7500   -3.8971    0.0000 O   0  0  0  0  0  0  0  0  0  0  0  0
   -3.7500   -6.4952    0.0000 C   0  0  0  0  0  0  0  0  0  0  0  0
   -3.1399   -7.8655    0.0000 C   0  0  0  0  0  0  0  0  0  0  0  0
   -4.2546   -8.8692    0.0000 N   0  0  0  0  0  0  0  0  0  0  0  0
   -5.5537   -8.1192    0.0000 N   0  0  0  0  0  0  0  0  0  0  0  0
   -6.9802   -8.5827    0.0000 C   0  0  0  0  0  0  0  0  0  0  0  0
   -8.0950   -7.5790    0.0000 C   0  0  0  0  0  0  0  0  0  0  0  0
   -7.7831   -6.1118    0.0000 C   0  0  0  0  0  0  0  0  0  0  0  0
   -6.3565   -5.6483    0.0000 N   0  0  0  0  0  0  0  0  0  0  0  0
   -5.2418   -6.6520    0.0000 C   0  0  0  0  0  0  0  0  0  0  0  0
  1  2  1  0
  2  3  1  0
  3  4  2  0
  4  5  1  0
  5  6  2  0
  6  7  1  0
  7  8  2  0
  8  9  1  0
  9 10  2  0
 10 11  1  0
 11 12  2  0
 12 13  1  0
 13 14  1  0
 14 15  2  0
 14 16  1  0
 16 17  1  0
 17 18  2  0
 18 19  1  0
 19 20  1  0
 20 21  2  0
 21 22  1  0
 22 23  2  0
 23 24  1  0
 12  3  1  0
 24 16  2  0
 10  5  1  0
 24 19  1  0
M  END
>  <Compound_ID>  (1) 
CHEMBL3952937

>  <Molecule Name>  (1) 
nan

>  <Molecular Weight>  (1) 
319.32

>  <AlogP>  (1) 
2.54

>  <Smiles>  (1) 
COc1cc2ncccc2cc1NC(=O)c1cnn2cccnc12

>  <Standard Type>  (1) 
IC50

>  <Standard Relation>  (1) 
'='

>  <Standard Units>  (1) 
nM

>  <Standard Value>  (1) 
43.0

>  <Assay ChEMBL ID>  (1) 
CHEMBL3887963

>  <Assay Description>  (1) 
In vitro IRAK-1 and IRAK-4 Assay: Purified recombinant IRAK-4 protein was incubated with 250 uM synthetic peptide(KKARFSRFAGSSPSQSSMVAR) in 30 ul of kinase buffer including (20 mM MOPS pH7.2, 25 mM beta glycerol phosphate, 5 mM EGTA, 1 mM sodium orthovanadate, 1 mM DTT, 50 uM ATP, 20 mM MgCl2, 10 uCi gamma-33P, 0.1% BSA) for the indicated time. For purified recombinant IRAK-1 protein kinase assay, 50 uM ATP was used. A 25 ul aliquot of the reaction mixture was transferred on to p81 phosphocellulose squares (Upstate Biotechnology, Lake Placid, N.Y.). The assay squares were washed three times with 0.75% phosphoric acid and once with acetone. Enzyme activity was measured by determining the bound radioactivity by liquid scintillation counting.

>  <BAO Format ID>  (1) 
BAO_0000357

>  <BAO Label>  (1) 
single protein format

>  <Assay Organism>  (1) 
Homo sapiens

>  <Target ChEMBL ID>  (1) 
CHEMBL3778

>  <Target Name>  (1) 
Interleukin-1 receptor-associated kinase 4

>  <Target Organism>  (1) 
Homo sapiens

>  <Target Type>  (1) 
SINGLE PROTEIN

>  <Document ChEMBL ID>  (1) 
CHEMBL3886519

>  <Source Description>  (1) 
BindingDB Database

>  <Document Journal>  (1) 
nan

>  <Document Year>  (1) 
2016.0

>  <Active>  (1) 
1.0

>  <bits>  (1) 
<rdkit.DataStructs.cDataStructs.ExplicitBitVect object at 0x000001D1B3CC3610>

>  <Group>  (1) 
G1

$$$$

     RDKit          2D

 33 37  0  0  0  0  0  0  0  0999 V2000
    3.7500   -1.2990    0.0000 C   0  0  0  0  0  0  0  0  0  0  0  0
    3.0000    0.0000    0.0000 C   0  0  0  0  0  0  0  0  0  0  0  0
    1.5000    0.0000    0.0000 C   0  0  0  0  0  0  0  0  0  0  0  0
    0.7500   -1.2990    0.0000 C   0  0  0  0  0  0  0  0  0  0  0  0
   -0.7500   -1.2990    0.0000 C   0  0  0  0  0  0  0  0  0  0  0  0
   -1.5000    0.0000    0.0000 C   0  0  0  0  0  0  0  0  0  0  0  0
   -2.9672    0.3119    0.0000 N   0  0  0  0  0  0  0  0  0  0  0  0
   -3.1240    1.8037    0.0000 C   0  0  0  0  0  0  0  0  0  0  0  0
   -4.4231    2.5537    0.0000 N   0  0  0  0  0  0  0  0  0  0  0  0
   -4.4231    4.0537    0.0000 C   0  0  0  0  0  0  0  0  0  0  0  0
   -3.1240    4.8037    0.0000 C   0  0  0  0  0  0  0  0  0  0  0  0
   -3.1240    6.3037    0.0000 C   0  0  0  0  0  0  0  0  0  0  0  0
   -1.8250    7.0537    0.0000 C   0  0  0  0  0  0  0  0  0  0  0  0
   -0.5259    6.3037    0.0000 C   0  0  0  0  0  0  0  0  0  0  0  0
   -0.5259    4.8037    0.0000 C   0  0  0  0  0  0  0  0  0  0  0  0
    0.7731    4.0537    0.0000 C   0  0  0  0  0  0  0  0  0  0  0  0
    2.0721    4.8037    0.0000 C   0  0  0  0  0  0  0  0  0  0  0  0
    2.0721    6.3037    0.0000 C   0  0  0  0  0  0  0  0  0  0  0  0
    0.7731    7.0537    0.0000 C   0  0  0  0  0  0  0  0  0  0  0  0
   -4.4231    7.0537    0.0000 N   0  0  0  0  0  0  0  0  0  0  0  0
   -5.7221    6.3037    0.0000 C   0  0  0  0  0  0  0  0  0  0  0  0
   -7.0211    7.0537    0.0000 N   0  0  0  0  0  0  0  0  0  0  0  0
   -7.0211    8.5537    0.0000 C   0  0  0  0  0  0  0  0  0  0  0  0
   -5.7221    9.3037    0.0000 C   0  0  0  0  0  0  0  0  0  0  0  0
   -5.7221   10.8037    0.0000 C   0  0  0  0  0  0  0  0  0  0  0  0
   -7.0211   11.5537    0.0000 C   0  0  0  0  0  0  0  0  0  0  0  0
   -7.0211   13.0537    0.0000 O   0  0  0  0  0  0  0  0  0  0  0  0
   -8.3202   10.8037    0.0000 C   0  0  0  0  0  0  0  0  0  0  0  0
   -8.3202    9.3037    0.0000 C   0  0  0  0  0  0  0  0  0  0  0  0
   -5.7221    4.8037    0.0000 N   0  0  0  0  0  0  0  0  0  0  0  0
   -1.7537    2.4138    0.0000 S   0  0  0  0  0  0  0  0  0  0  0  0
   -0.7500    1.2990    0.0000 C   0  0  0  0  0  0  0  0  0  0  0  0
    0.7500    1.2990    0.0000 C   0  0  0  0  0  0  0  0  0  0  0  0
  1  2  1  0
  2  3  1  0
  3  4  2  0
  4  5  1  0
  5  6  2  0
  6  7  1  0
  7  8  2  0
  8  9  1  0
  9 10  1  0
 10 11  2  0
 11 12  1  0
 12 13  1  0
 13 14  1  0
 14 15  2  0
 15 16  1  0
 16 17  2  0
 17 18  1  0
 18 19  2  0
 12 20  2  0
 20 21  1  0
 21 22  1  0
 23 22  1  6
 23 24  1  0
 24 25  1  0
 25 26  1  0
 26 27  1  1
 26 28  1  0
 28 29  1  0
 21 30  2  0
  8 31  1  0
 31 32  1  0
 32 33  2  0
 33  3  1  0
 32  6  1  0
 30 10  1  0
 19 14  1  0
 29 23  1  0
M  END
>  <Compound_ID>  (2) 
CHEMBL2441273

>  <Molecule Name>  (2) 
nan

>  <Molecular Weight>  (2) 
459.62

>  <AlogP>  (2) 
5.7

>  <Smiles>  (2) 
CCc1ccc2nc(Nc3cc(Cc4ccccc4)nc(N[C@H]4CC[C@H](O)CC4)n3)sc2c1

>  <Standard Type>  (2) 
IC50

>  <Standard Relation>  (2) 
'='

>  <Standard Units>  (2) 
nM

>  <Standard Value>  (2) 
3.981

>  <Assay ChEMBL ID>  (2) 
CHEMBL2446684

>  <Assay Description>  (2) 
Inhibition of IRAK4 (unknown origin)

>  <BAO Format ID>  (2) 
BAO_0000357

>  <BAO Label>  (2) 
single protein format

>  <Assay Organism>  (2) 
Homo sapiens

>  <Target ChEMBL ID>  (2) 
CHEMBL3778

>  <Target Name>  (2) 
Interleukin-1 receptor-associated kinase 4

>  <Target Organism>  (2) 
Homo sapiens

>  <Target Type>  (2) 
SINGLE PROTEIN

>  <Document ChEMBL ID>  (2) 
CHEMBL2440060

>  <Source Description>  (2) 
Scientific Literature

>  <Document Journal>  (2) 
ACS Med Chem Lett

>  <Document Year>  (2) 
2013.0

>  <Active>  (2) 
1.0

>  <bits>  (2) 
<rdkit.DataStructs.cDataStructs.ExplicitBitVect object at 0x000001D1B3CC38B0>

>  <Group>  (2) 
G1

$$$$

     RDKit          2D

 23 25  0  0  0  0  0  0  0  0999 V2000
   -3.0000   -5.1962    0.0000 C   0  0  0  0  0  0  0  0  0  0  0  0
   -3.7500   -3.8971    0.0000 O   0  0  0  0  0  0  0  0  0  0  0  0
   -3.0000   -2.5981    0.0000 C   0  0  0  0  0  0  0  0  0  0  0  0
   -1.5000   -2.5981    0.0000 C   0  0  0  0  0  0  0  0  0  0  0  0
   -0.7500   -1.2990    0.0000 C   0  0  0  0  0  0  0  0  0  0  0  0
    0.7500   -1.2990    0.0000 C   0  0  0  0  0  0  0  0  0  0  0  0
    1.5000   -2.5981    0.0000 O   0  0  0  0  0  0  0  0  0  0  0  0
    3.0000   -2.5981    0.0000 C   0  0  0  0  0  0  0  0  0  0  0  0
    3.7500   -3.8971    0.0000 C   0  0  0  0  0  0  0  0  0  0  0  0
    5.2418   -4.0539    0.0000 C   0  0  0  0  0  0  0  0  0  0  0  0
    5.5537   -5.5211    0.0000 C   0  0  0  0  0  0  0  0  0  0  0  0
    4.2546   -6.2711    0.0000 C   0  0  0  0  0  0  0  0  0  0  0  0
    4.0978   -7.7629    0.0000 O   0  0  0  0  0  0  0  0  0  0  0  0
    3.1399   -5.2674    0.0000 N   0  0  0  0  0  0  0  0  0  0  0  0
    1.5000    0.0000    0.0000 C   0  0  0  0  0  0  0  0  0  0  0  0
    0.7500    1.2990    0.0000 C   0  0  0  0  0  0  0  0  0  0  0  0
   -0.7500    1.2990    0.0000 C   0  0  0  0  0  0  0  0  0  0  0  0
   -1.5000    0.0000    0.0000 C   0  0  0  0  0  0  0  0  0  0  0  0
   -3.0000    0.0000    0.0000 C   0  0  0  0  0  0  0  0  0  0  0  0
   -3.7500   -1.2990    0.0000 C   0  0  0  0  0  0  0  0  0  0  0  0
   -5.2500   -1.2990    0.0000 C   0  0  0  0  0  0  0  0  0  0  0  0
   -6.0000    0.0000    0.0000 N   0  0  0  0  0  0  0  0  0  0  0  0
   -6.0000   -2.5981    0.0000 O   0  0  0  0  0  0  0  0  0  0  0  0
  1  2  1  0
  2  3  1  0
  3  4  2  0
  4  5  1  0
  5  6  2  0
  6  7  1  0
  7  8  1  0
  9  8  1  6
  9 10  1  0
 10 11  1  0
 11 12  1  0
 12 13  2  0
 12 14  1  0
  6 15  1  0
 15 16  2  0
 16 17  1  0
 17 18  2  0
 18 19  1  0
 19 20  2  0
 20 21  1  0
 21 22  1  0
 21 23  2  0
 20  3  1  0
 18  5  1  0
 14  9  1  0
M  END
>  <Compound_ID>  (3) 
CHEMBL4083655

>  <Molecule Name>  (3) 
nan

>  <Molecular Weight>  (3) 
314.34

>  <AlogP>  (3) 
1.6

>  <Smiles>  (3) 
COc1cc2c(OC[C@@H]3CCC(=O)N3)cccc2cc1C(N)=O

>  <Standard Type>  (3) 
IC50

>  <Standard Relation>  (3) 
'='

>  <Standard Units>  (3) 
nM

>  <Standard Value>  (3) 
1.3

>  <Assay ChEMBL ID>  (3) 
CHEMBL4015944

>  <Assay Description>  (3) 
Inhibition of N-terminal His6-tagged human full length IRAK4 preincubated for 20 mins followed by biotinylated-AGAGRDKYKTLRQIR substrate addition in presence of ATP measured after 60 mins by DELFIA method

>  <BAO Format ID>  (3) 
BAO_0000357

>  <BAO Label>  (3) 
single protein format

>  <Assay Organism>  (3) 
Homo sapiens

>  <Target ChEMBL ID>  (3) 
CHEMBL3778

>  <Target Name>  (3) 
Interleukin-1 receptor-associated kinase 4

>  <Target Organism>  (3) 
Homo sapiens

>  <Target Type>  (3) 
SINGLE PROTEIN

>  <Document ChEMBL ID>  (3) 
CHEMBL4014327

>  <Source Description>  (3) 
Scientific Literature

>  <Document Journal>  (3) 
J Med Chem

>  <Document Year>  (3) 
2017.0

>  <Active>  (3) 
1.0

>  <bits>  (3) 
<rdkit.DataStructs.cDataStructs.ExplicitBitVect object at 0x000001D1B3CC3680>

>  <Group>  (3) 
G1

$$$$

     RDKit          2D

 25 27  0  0  0  0  0  0  0  0999 V2000
   -3.7500   -6.4952    0.0000 C   0  0  0  0  0  0  0  0  0  0  0  0
   -3.0000   -5.1962    0.0000 C   0  0  0  0  0  0  0  0  0  0  0  0
   -1.5000   -5.1962    0.0000 C   0  0  0  0  0  0  0  0  0  0  0  0
   -3.7500   -3.8971    0.0000 O   0  0  0  0  0  0  0  0  0  0  0  0
   -3.0000   -2.5981    0.0000 C   0  0  0  0  0  0  0  0  0  0  0  0
   -1.5000   -2.5981    0.0000 C   0  0  0  0  0  0  0  0  0  0  0  0
   -0.7500   -1.2990    0.0000 C   0  0  0  0  0  0  0  0  0  0  0  0
    0.7500   -1.2990    0.0000 C   0  0  0  0  0  0  0  0  0  0  0  0
    1.5000   -2.5981    0.0000 C   0  0  0  0  0  0  0  0  0  0  0  0
    0.7500   -3.8971    0.0000 C   0  0  0  0  0  0  0  0  0  0  0  0
    1.5000   -5.1962    0.0000 C   0  0  0  0  0  0  0  0  0  0  0  0
    3.0000   -5.1962    0.0000 C   0  0  0  0  0  0  0  0  0  0  0  0
    3.7500   -6.4952    0.0000 C   0  0  0  0  0  0  0  0  0  0  0  0
    4.5000   -7.7942    0.0000 N   0  0  0  0  0  0  0  0  0  0  0  0
    3.7500   -3.8971    0.0000 C   0  0  0  0  0  0  0  0  0  0  0  0
    3.0000   -2.5981    0.0000 C   0  0  0  0  0  0  0  0  0  0  0  0
    1.5000    0.0000    0.0000 C   0  0  0  0  0  0  0  0  0  0  0  0
    0.7500    1.2990    0.0000 C   0  0  0  0  0  0  0  0  0  0  0  0
   -0.7500    1.2990    0.0000 C   0  0  0  0  0  0  0  0  0  0  0  0
   -1.5000    0.0000    0.0000 C   0  0  0  0  0  0  0  0  0  0  0  0
   -3.0000    0.0000    0.0000 C   0  0  0  0  0  0  0  0  0  0  0  0
   -3.7500   -1.2990    0.0000 C   0  0  0  0  0  0  0  0  0  0  0  0
   -5.2500   -1.2990    0.0000 C   0  0  0  0  0  0  0  0  0  0  0  0
   -6.0000    0.0000    0.0000 N   0  0  0  0  0  0  0  0  0  0  0  0
   -6.0000   -2.5981    0.0000 O   0  0  0  0  0  0  0  0  0  0  0  0
  1  2  1  0
  2  3  1  0
  2  4  1  0
  4  5  1  0
  5  6  2  0
  6  7  1  0
  7  8  2  0
  8  9  1  0
  9 10  2  0
 10 11  1  0
 11 12  2  0
 12 13  1  0
 13 14  3  0
 12 15  1  0
 15 16  2  0
  8 17  1  0
 17 18  2  0
 18 19  1  0
 19 20  2  0
 20 21  1  0
 21 22  2  0
 22 23  1  0
 23 24  1  0
 23 25  2  0
 22  5  1  0
 20  7  1  0
 16  9  1  0
M  END
>  <Compound_ID>  (4) 
CHEMBL4086222

>  <Molecule Name>  (4) 
nan

>  <Molecular Weight>  (4) 
330.39

>  <AlogP>  (4) 
4.26

>  <Smiles>  (4) 
CC(C)Oc1cc2c(-c3ccc(C#N)cc3)cccc2cc1C(N)=O

>  <Standard Type>  (4) 
IC50

>  <Standard Relation>  (4) 
'='

>  <Standard Units>  (4) 
nM

>  <Standard Value>  (4) 
71.9

>  <Assay ChEMBL ID>  (4) 
CHEMBL4015944

>  <Assay Description>  (4) 
Inhibition of N-terminal His6-tagged human full length IRAK4 preincubated for 20 mins followed by biotinylated-AGAGRDKYKTLRQIR substrate addition in presence of ATP measured after 60 mins by DELFIA method

>  <BAO Format ID>  (4) 
BAO_0000357

>  <BAO Label>  (4) 
single protein format

>  <Assay Organism>  (4) 
Homo sapiens

>  <Target ChEMBL ID>  (4) 
CHEMBL3778

>  <Target Name>  (4) 
Interleukin-1 receptor-associated kinase 4

>  <Target Organism>  (4) 
Homo sapiens

>  <Target Type>  (4) 
SINGLE PROTEIN

>  <Document ChEMBL ID>  (4) 
CHEMBL4014327

>  <Source Description>  (4) 
Scientific Literature

>  <Document Journal>  (4) 
J Med Chem

>  <Document Year>  (4) 
2017.0

>  <Active>  (4) 
1.0

>  <bits>  (4) 
<rdkit.DataStructs.cDataStructs.ExplicitBitVect object at 0x000001D1B3CC3760>

>  <Group>  (4) 
G1

$$$$

     RDKit          2D

 36 39  0  0  0  0  0  0  0  0999 V2000
  -11.5389   -4.9260    0.0000 C   0  0  0  0  0  0  0  0  0  0  0  0
  -12.0025   -3.4994    0.0000 C   0  0  0  0  0  0  0  0  0  0  0  0
  -12.4660   -2.0728    0.0000 C   0  0  0  0  0  0  0  0  0  0  0  0
  -13.4291   -3.9629    0.0000 O   0  0  0  0  0  0  0  0  0  0  0  0
  -10.5759   -3.0359    0.0000 C   0  0  0  0  0  0  0  0  0  0  0  0
  -10.2640   -1.5686    0.0000 F   0  0  0  0  0  0  0  0  0  0  0  0
   -9.4612   -4.0396    0.0000 C   0  0  0  0  0  0  0  0  0  0  0  0
   -8.0346   -3.5760    0.0000 N   0  0  0  0  0  0  0  0  0  0  0  0
   -6.9199   -4.5797    0.0000 C   0  0  0  0  0  0  0  0  0  0  0  0
   -7.2317   -6.0469    0.0000 O   0  0  0  0  0  0  0  0  0  0  0  0
   -5.4933   -4.1162    0.0000 C   0  0  0  0  0  0  0  0  0  0  0  0
   -5.1814   -2.6490    0.0000 C   0  0  0  0  0  0  0  0  0  0  0  0
   -3.7548   -2.1855    0.0000 N   0  0  0  0  0  0  0  0  0  0  0  0
   -2.6401   -3.1891    0.0000 C   0  0  0  0  0  0  0  0  0  0  0  0
   -1.2135   -2.7256    0.0000 N   0  0  0  0  0  0  0  0  0  0  0  0
   -0.0000   -3.6073    0.0000 C   0  0  0  0  0  0  0  0  0  0  0  0
    1.2135   -2.7256    0.0000 N   0  0  0  0  0  0  0  0  0  0  0  0
    0.7500   -1.2990    0.0000 C   0  0  0  0  0  0  0  0  0  0  0  0
    1.5000    0.0000    0.0000 C   0  0  0  0  0  0  0  0  0  0  0  0
    0.7500    1.2990    0.0000 C   0  0  0  0  0  0  0  0  0  0  0  0
    1.5000    2.5981    0.0000 Cl  0  0  0  0  0  0  0  0  0  0  0  0
   -0.7500    1.2990    0.0000 C   0  0  0  0  0  0  0  0  0  0  0  0
   -1.5000    0.0000    0.0000 N   0  0  0  0  0  0  0  0  0  0  0  0
   -0.7500   -1.2990    0.0000 C   0  0  0  0  0  0  0  0  0  0  0  0
   -2.9520   -4.6564    0.0000 C   0  0  0  0  0  0  0  0  0  0  0  0
   -4.3786   -5.1199    0.0000 C   0  0  0  0  0  0  0  0  0  0  0  0
   -4.6904   -6.5871    0.0000 N   0  0  0  0  0  0  0  0  0  0  0  0
   -3.5757   -7.5908    0.0000 C   0  0  0  0  0  0  0  0  0  0  0  0
   -2.1085   -7.2789    0.0000 C   0  0  0  0  0  0  0  0  0  0  0  0
   -1.3585   -8.5780    0.0000 N   0  0  0  0  0  0  0  0  0  0  0  0
   -2.3622   -9.6927    0.0000 N   0  0  0  0  0  0  0  0  0  0  0  0
   -2.0503  -11.1599    0.0000 C   0  0  0  0  0  0  0  0  0  0  0  0
   -3.1650  -12.1636    0.0000 C   0  0  0  0  0  0  0  0  0  0  0  0
   -2.8532  -13.6308    0.0000 F   0  0  0  0  0  0  0  0  0  0  0  0
   -4.5916  -11.7001    0.0000 F   0  0  0  0  0  0  0  0  0  0  0  0
   -3.7325   -9.0826    0.0000 C   0  0  0  0  0  0  0  0  0  0  0  0
  1  2  1  0
  2  3  1  0
  2  4  1  0
  2  5  1  0
  5  6  1  6
  5  7  1  0
  7  8  1  0
  8  9  1  0
  9 10  2  0
  9 11  1  0
 11 12  2  0
 12 13  1  0
 13 14  2  0
 14 15  1  0
 15 16  1  0
 16 17  2  0
 17 18  1  0
 18 19  2  0
 19 20  1  0
 20 21  1  0
 20 22  2  0
 22 23  1  0
 23 24  2  0
 14 25  1  0
 25 26  2  0
 26 27  1  0
 27 28  1  0
 28 29  1  0
 29 30  2  0
 30 31  1  0
 31 32  1  0
 32 33  1  0
 33 34  1  0
 33 35  1  0
 31 36  1  0
 26 11  1  0
 36 28  2  0
 24 15  1  0
 24 18  1  0
M  END
>  <Compound_ID>  (5) 
CHEMBL4110464

>  <Molecule Name>  (5) 
nan

>  <Molecular Weight>  (5) 
522.92

>  <AlogP>  (5) 
3.51

>  <Smiles>  (5) 
CC(C)(O)[C@H](F)CNC(=O)c1cnc(-n2cnc3cc(Cl)cnc32)cc1Nc1cnn(CC(F)F)c1

>  <Standard Type>  (5) 
IC50

>  <Standard Relation>  (5) 
'='

>  <Standard Units>  (5) 
nM

>  <Standard Value>  (5) 
1.3

>  <Assay ChEMBL ID>  (5) 
CHEMBL3887118

>  <Assay Description>  (5) 
Inhibition Assay: The assays were performed in U-bottom 384-well plates. The final assay volume was 30 L prepared from 15 L additions of enzyme and substrates (fluoresceinated peptide and ATP) and test compounds in assay buffer (20 mM HEPES pH 7.2, 10 mM MgCl2, 0.015% Brij 35 and 4 mM DTT). The reaction was initiated by the combination of IRAK4 with substrates and test compounds. The reaction mixture was incubated at room temperature for 60 min. and terminated by adding 45 μL of 35 mM EDTA to each sample. The reaction mixture was analyzed on the Caliper LABCHIP® 3000 (Caliper, Hopkinton, Mass.) by electrophoretic separation of the fluorescent substrate and phosphorylated product. Inhibition data were calculated by comparison to no enzyme control reactions for 100% inhibition and vehicle-only reactions for 0% inhibition. The final concentrations of reagents in the assays are ATP, 500 μM; FL-IPTSPITTTYFFFKKK peptide 1.5 μM; IRAK4, 0.6 nM; and DMSO, 1.6%.

>  <BAO Format ID>  (5) 
BAO_0000357

>  <BAO Label>  (5) 
single protein format

>  <Assay Organism>  (5) 
Homo sapiens

>  <Target ChEMBL ID>  (5) 
CHEMBL3778

>  <Target Name>  (5) 
Interleukin-1 receptor-associated kinase 4

>  <Target Organism>  (5) 
Homo sapiens

>  <Target Type>  (5) 
SINGLE PROTEIN

>  <Document ChEMBL ID>  (5) 
CHEMBL3886172

>  <Source Description>  (5) 
BindingDB Database

>  <Document Journal>  (5) 
nan

>  <Document Year>  (5) 
2015.0

>  <Active>  (5) 
1.0

>  <bits>  (5) 
<rdkit.DataStructs.cDataStructs.ExplicitBitVect object at 0x000001D1B3CC3A00>

>  <Group>  (5) 
G1

$$$$

     RDKit          2D

 22 24  0  0  0  0  0  0  0  0999 V2000
    4.5000    0.0000    0.0000 N   0  0  0  0  0  0  0  0  0  0  0  0
    3.0000    0.0000    0.0000 C   0  0  0  0  0  0  0  0  0  0  0  0
    1.5000    0.0000    0.0000 C   0  0  0  0  0  0  0  0  0  0  0  0
    0.7500   -1.2990    0.0000 C   0  0  0  0  0  0  0  0  0  0  0  0
   -0.7500   -1.2990    0.0000 C   0  0  0  0  0  0  0  0  0  0  0  0
   -1.5000    0.0000    0.0000 C   0  0  0  0  0  0  0  0  0  0  0  0
   -3.0000    0.0000    0.0000 N   0  0  0  0  0  0  0  0  0  0  0  0
   -3.8817   -1.2135    0.0000 N   0  0  0  0  0  0  0  0  0  0  0  0
   -5.3083   -0.7500    0.0000 C   0  0  0  0  0  0  0  0  0  0  0  0
   -6.5218   -1.6317    0.0000 N   0  0  0  0  0  0  0  0  0  0  0  0
   -7.8921   -1.0216    0.0000 C   0  0  0  0  0  0  0  0  0  0  0  0
   -8.0489    0.4702    0.0000 C   0  0  0  0  0  0  0  0  0  0  0  0
   -9.4192    1.0803    0.0000 C   0  0  0  0  0  0  0  0  0  0  0  0
  -10.6327    0.1986    0.0000 C   0  0  0  0  0  0  0  0  0  0  0  0
  -10.4760   -1.2931    0.0000 C   0  0  0  0  0  0  0  0  0  0  0  0
   -9.1056   -1.9033    0.0000 C   0  0  0  0  0  0  0  0  0  0  0  0
   -8.9488   -3.3950    0.0000 Cl  0  0  0  0  0  0  0  0  0  0  0  0
   -5.3083    0.7500    0.0000 N   0  0  0  0  0  0  0  0  0  0  0  0
   -3.8817    1.2135    0.0000 C   0  0  0  0  0  0  0  0  0  0  0  0
   -3.4182    2.6401    0.0000 N   0  0  0  0  0  0  0  0  0  0  0  0
   -0.7500    1.2990    0.0000 N   0  0  0  0  0  0  0  0  0  0  0  0
    0.7500    1.2990    0.0000 C   0  0  0  0  0  0  0  0  0  0  0  0
  1  2  3  0
  2  3  1  0
  3  4  2  0
  4  5  1  0
  5  6  2  0
  6  7  1  0
  7  8  1  0
  8  9  2  0
  9 10  1  0
 10 11  1  0
 11 12  2  0
 12 13  1  0
 13 14  2  0
 14 15  1  0
 15 16  2  0
 16 17  1  0
  9 18  1  0
 18 19  2  0
 19 20  1  0
  6 21  1  0
 21 22  2  0
 22  3  1  0
 19  7  1  0
 16 11  1  0
M  END
>  <Compound_ID>  (6) 
CHEMBL1835744

>  <Molecule Name>  (6) 
nan

>  <Molecular Weight>  (6) 
311.74

>  <AlogP>  (6) 
2.51

>  <Smiles>  (6) 
N#Cc1ccc(-n2nc(Nc3ccccc3Cl)nc2N)nc1

>  <Standard Type>  (6) 
Ki

>  <Standard Relation>  (6) 
'='

>  <Standard Units>  (6) 
nM

>  <Standard Value>  (6) 
36.0

>  <Assay ChEMBL ID>  (6) 
CHEMBL1840412

>  <Assay Description>  (6) 
Inhibition of IRAK4 by spectrophotometry

>  <BAO Format ID>  (6) 
BAO_0000357

>  <BAO Label>  (6) 
single protein format

>  <Assay Organism>  (6) 
None

>  <Target ChEMBL ID>  (6) 
CHEMBL3778

>  <Target Name>  (6) 
Interleukin-1 receptor-associated kinase 4

>  <Target Organism>  (6) 
Homo sapiens

>  <Target Type>  (6) 
SINGLE PROTEIN

>  <Document ChEMBL ID>  (6) 
CHEMBL1833953

>  <Source Description>  (6) 
Scientific Literature

>  <Document Journal>  (6) 
J Med Chem

>  <Document Year>  (6) 
2011.0

>  <Active>  (6) 
1.0

>  <bits>  (6) 
<rdkit.DataStructs.cDataStructs.ExplicitBitVect object at 0x000001D1B3CC3A70>

>  <Group>  (6) 
G1

$$$$

     RDKit          2D

 27 29  0  0  0  0  0  0  0  0999 V2000
    3.7500   -1.2990    0.0000 C   0  0  0  0  0  0  0  0  0  0  0  0
    3.0000    0.0000    0.0000 O   0  0  0  0  0  0  0  0  0  0  0  0
    1.5000    0.0000    0.0000 C   0  0  0  0  0  0  0  0  0  0  0  0
    0.7500   -1.2990    0.0000 C   0  0  0  0  0  0  0  0  0  0  0  0
   -0.7500   -1.2990    0.0000 C   0  0  0  0  0  0  0  0  0  0  0  0
   -1.5000    0.0000    0.0000 C   0  0  0  0  0  0  0  0  0  0  0  0
   -0.7500    1.2990    0.0000 C   0  0  0  0  0  0  0  0  0  0  0  0
    0.7500    1.2990    0.0000 C   0  0  0  0  0  0  0  0  0  0  0  0
    1.5000    2.5981    0.0000 N   0  0  0  0  0  0  0  0  0  0  0  0
    3.0000    2.5981    0.0000 C   0  0  0  0  0  0  0  0  0  0  0  0
    3.8817    3.8116    0.0000 N   0  0  0  0  0  0  0  0  0  0  0  0
    5.3083    3.3481    0.0000 C   0  0  0  0  0  0  0  0  0  0  0  0
    6.5218    4.2298    0.0000 N   0  0  0  0  0  0  0  0  0  0  0  0
    5.3083    1.8481    0.0000 N   0  0  0  0  0  0  0  0  0  0  0  0
    6.5218    0.9664    0.0000 C   0  0  0  0  0  0  0  0  0  0  0  0
    6.3650   -0.5254    0.0000 C   0  0  0  0  0  0  0  0  0  0  0  0
    7.5785   -1.4071    0.0000 C   0  0  0  0  0  0  0  0  0  0  0  0
    7.4217   -2.8988    0.0000 N   0  0  0  0  0  0  0  0  0  0  0  0
    6.0514   -3.5090    0.0000 C   0  0  0  0  0  0  0  0  0  0  0  0
    5.8946   -5.0007    0.0000 C   0  0  0  0  0  0  0  0  0  0  0  0
    4.5243   -5.6108    0.0000 N   0  0  0  0  0  0  0  0  0  0  0  0
    4.3675   -7.1026    0.0000 C   0  0  0  0  0  0  0  0  0  0  0  0
    3.3108   -4.7292    0.0000 C   0  0  0  0  0  0  0  0  0  0  0  0
    8.9488   -0.7970    0.0000 N   0  0  0  0  0  0  0  0  0  0  0  0
    9.1056    0.6948    0.0000 C   0  0  0  0  0  0  0  0  0  0  0  0
    7.8921    1.5765    0.0000 N   0  0  0  0  0  0  0  0  0  0  0  0
    3.8817    1.3846    0.0000 N   0  0  0  0  0  0  0  0  0  0  0  0
  1  2  1  0
  2  3  1  0
  3  4  2  0
  4  5  1  0
  5  6  2  0
  6  7  1  0
  7  8  2  0
  8  9  1  0
  9 10  1  0
 10 11  1  0
 11 12  2  0
 12 13  1  0
 12 14  1  0
 14 15  1  0
 15 16  2  0
 16 17  1  0
 17 18  1  0
 18 19  1  0
 19 20  1  0
 20 21  1  0
 21 22  1  0
 21 23  1  0
 17 24  2  0
 24 25  1  0
 25 26  2  0
 14 27  1  0
  8  3  1  0
 27 10  2  0
 26 15  1  0
M  END
>  <Compound_ID>  (7) 
CHEMBL1835746

>  <Molecule Name>  (7) 
nan

>  <Molecular Weight>  (7) 
369.43

>  <AlogP>  (7) 
1.37

>  <Smiles>  (7) 
COc1ccccc1Nc1nc(N)n(-c2cc(NCCN(C)C)ncn2)n1

>  <Standard Type>  (7) 
Ki

>  <Standard Relation>  (7) 
'='

>  <Standard Units>  (7) 
nM

>  <Standard Value>  (7) 
78.0

>  <Assay ChEMBL ID>  (7) 
CHEMBL1840412

>  <Assay Description>  (7) 
Inhibition of IRAK4 by spectrophotometry

>  <BAO Format ID>  (7) 
BAO_0000357

>  <BAO Label>  (7) 
single protein format

>  <Assay Organism>  (7) 
None

>  <Target ChEMBL ID>  (7) 
CHEMBL3778

>  <Target Name>  (7) 
Interleukin-1 receptor-associated kinase 4

>  <Target Organism>  (7) 
Homo sapiens

>  <Target Type>  (7) 
SINGLE PROTEIN

>  <Document ChEMBL ID>  (7) 
CHEMBL1833953

>  <Source Description>  (7) 
Scientific Literature

>  <Document Journal>  (7) 
J Med Chem

>  <Document Year>  (7) 
2011.0

>  <Active>  (7) 
1.0

>  <bits>  (7) 
<rdkit.DataStructs.cDataStructs.ExplicitBitVect object at 0x000001D1B3CC3AE0>

>  <Group>  (7) 
G1

$$$$

     RDKit          2D

 28 32  0  0  0  0  0  0  0  0999 V2000
  -11.8882   -2.3387    0.0000 O   0  0  0  0  0  0  0  0  0  0  0  0
  -10.7735   -1.3350    0.0000 C   0  0  0  0  0  0  0  0  0  0  0  0
   -9.3469   -1.7986    0.0000 C   0  0  0  0  0  0  0  0  0  0  0  0
   -9.0350   -3.2658    0.0000 C   0  0  0  0  0  0  0  0  0  0  0  0
   -7.6085   -3.7293    0.0000 C   0  0  0  0  0  0  0  0  0  0  0  0
   -6.4937   -2.7256    0.0000 C   0  0  0  0  0  0  0  0  0  0  0  0
   -5.0672   -3.1891    0.0000 N   0  0  0  0  0  0  0  0  0  0  0  0
   -3.8536   -2.3075    0.0000 C   0  0  0  0  0  0  0  0  0  0  0  0
   -2.6401   -3.1891    0.0000 C   0  0  0  0  0  0  0  0  0  0  0  0
   -1.2135   -2.7256    0.0000 C   0  0  0  0  0  0  0  0  0  0  0  0
   -0.0000   -3.6073    0.0000 N   0  0  0  0  0  0  0  0  0  0  0  0
    1.2135   -2.7256    0.0000 N   0  0  0  0  0  0  0  0  0  0  0  0
    0.7500   -1.2990    0.0000 C   0  0  0  0  0  0  0  0  0  0  0  0
    1.5000    0.0000    0.0000 C   0  0  0  0  0  0  0  0  0  0  0  0
    0.7500    1.2990    0.0000 C   0  0  0  0  0  0  0  0  0  0  0  0
   -0.7500    1.2990    0.0000 C   0  0  0  0  0  0  0  0  0  0  0  0
   -1.5000    0.0000    0.0000 C   0  0  0  0  0  0  0  0  0  0  0  0
   -0.7500   -1.2990    0.0000 C   0  0  0  0  0  0  0  0  0  0  0  0
   -3.1036   -4.6157    0.0000 N   0  0  0  0  0  0  0  0  0  0  0  0
   -4.6036   -4.6157    0.0000 N   0  0  0  0  0  0  0  0  0  0  0  0
   -6.8056   -1.2584    0.0000 C   0  0  0  0  0  0  0  0  0  0  0  0
   -8.2322   -0.7949    0.0000 C   0  0  0  0  0  0  0  0  0  0  0  0
  -11.0854    0.1322    0.0000 N   0  0  0  0  0  0  0  0  0  0  0  0
   -9.9707    1.1359    0.0000 C   0  0  0  0  0  0  0  0  0  0  0  0
  -10.2825    2.6031    0.0000 C   0  0  0  0  0  0  0  0  0  0  0  0
  -11.7091    3.0666    0.0000 O   0  0  0  0  0  0  0  0  0  0  0  0
  -12.8238    2.0629    0.0000 C   0  0  0  0  0  0  0  0  0  0  0  0
  -12.5120    0.5957    0.0000 C   0  0  0  0  0  0  0  0  0  0  0  0
  1  2  2  0
  2  3  1  0
  3  4  2  0
  4  5  1  0
  5  6  2  0
  6  7  1  0
  7  8  1  0
  8  9  2  0
  9 10  1  0
 10 11  2  0
 11 12  1  0
 12 13  1  0
 13 14  2  0
 14 15  1  0
 15 16  2  0
 16 17  1  0
 17 18  2  0
  9 19  1  0
 19 20  2  0
  6 21  1  0
 21 22  2  0
  2 23  1  0
 23 24  1  0
 24 25  1  0
 25 26  1  0
 26 27  1  0
 27 28  1  0
 22  3  1  0
 28 23  1  0
 20  7  1  0
 18 10  1  0
 18 13  1  0
M  END
>  <Compound_ID>  (8) 
CHEMBL3353210

>  <Molecule Name>  (8) 
nan

>  <Molecular Weight>  (8) 
374.4

>  <AlogP>  (8) 
2.28

>  <Smiles>  (8) 
O=C(c1ccc(-n2cc(-c3n[nH]c4ccccc34)nn2)cc1)N1CCOCC1

>  <Standard Type>  (8) 
IC50

>  <Standard Relation>  (8) 
'='

>  <Standard Units>  (8) 
nM

>  <Standard Value>  (8) 
100.0

>  <Assay ChEMBL ID>  (8) 
CHEMBL3380177

>  <Assay Description>  (8) 
Inhibition of IRAK4 (unknown origin)

>  <BAO Format ID>  (8) 
BAO_0000357

>  <BAO Label>  (8) 
single protein format

>  <Assay Organism>  (8) 
Homo sapiens

>  <Target ChEMBL ID>  (8) 
CHEMBL3778

>  <Target Name>  (8) 
Interleukin-1 receptor-associated kinase 4

>  <Target Organism>  (8) 
Homo sapiens

>  <Target Type>  (8) 
SINGLE PROTEIN

>  <Document ChEMBL ID>  (8) 
CHEMBL3351266

>  <Source Description>  (8) 
Scientific Literature

>  <Document Journal>  (8) 
J Med Chem

>  <Document Year>  (8) 
2015.0

>  <Active>  (8) 
1.0

>  <bits>  (8) 
<rdkit.DataStructs.cDataStructs.ExplicitBitVect object at 0x000001D1B3CC3B50>

>  <Group>  (8) 
G1

$$$$

     RDKit          2D

 32 36  0  0  0  0  0  0  0  0999 V2000
   -7.6230   -9.1881    0.0000 O   0  0  0  0  0  0  0  0  0  0  0  0
   -6.1312   -9.0313    0.0000 C   0  0  0  0  0  0  0  0  0  0  0  0
   -5.5211   -7.6610    0.0000 C   0  0  0  0  0  0  0  0  0  0  0  0
   -4.0539   -7.3491    0.0000 C   0  0  0  0  0  0  0  0  0  0  0  0
   -3.8971   -5.8573    0.0000 C   0  0  0  0  0  0  0  0  0  0  0  0
   -2.5981   -5.1073    0.0000 N   0  0  0  0  0  0  0  0  0  0  0  0
   -1.2990   -5.8573    0.0000 C   0  0  0  0  0  0  0  0  0  0  0  0
   -1.2990   -7.3573    0.0000 N   0  0  0  0  0  0  0  0  0  0  0  0
   -0.0000   -8.1073    0.0000 C   0  0  0  0  0  0  0  0  0  0  0  0
    0.0000   -9.6073    0.0000 N   0  0  0  0  0  0  0  0  0  0  0  0
   -1.2990  -10.3573    0.0000 C   0  0  0  0  0  0  0  0  0  0  0  0
   -2.5981   -9.6073    0.0000 C   0  0  0  0  0  0  0  0  0  0  0  0
   -3.8971  -10.3573    0.0000 C   0  0  0  0  0  0  0  0  0  0  0  0
   -3.8971  -11.8573    0.0000 C   0  0  0  0  0  0  0  0  0  0  0  0
   -2.5981  -12.6073    0.0000 N   0  0  0  0  0  0  0  0  0  0  0  0
   -1.2990  -11.8573    0.0000 C   0  0  0  0  0  0  0  0  0  0  0  0
    1.2990   -7.3573    0.0000 N   0  0  0  0  0  0  0  0  0  0  0  0
    1.2990   -5.8573    0.0000 C   0  0  0  0  0  0  0  0  0  0  0  0
   -0.0000   -5.1073    0.0000 C   0  0  0  0  0  0  0  0  0  0  0  0
   -0.0000   -3.6073    0.0000 C   0  0  0  0  0  0  0  0  0  0  0  0
    1.2135   -2.7256    0.0000 N   0  0  0  0  0  0  0  0  0  0  0  0
    0.7500   -1.2990    0.0000 C   0  0  0  0  0  0  0  0  0  0  0  0
    1.5000    0.0000    0.0000 C   0  0  0  0  0  0  0  0  0  0  0  0
    0.7500    1.2990    0.0000 N   0  0  0  0  0  0  0  0  0  0  0  0
   -0.7500    1.2990    0.0000 C   0  0  0  0  0  0  0  0  0  0  0  0
   -1.5000    0.0000    0.0000 C   0  0  0  0  0  0  0  0  0  0  0  0
   -0.7500   -1.2990    0.0000 C   0  0  0  0  0  0  0  0  0  0  0  0
   -1.2135   -2.7256    0.0000 S   0  0  0  0  0  0  0  0  0  0  0  0
   -5.2674   -5.2472    0.0000 C   0  0  0  0  0  0  0  0  0  0  0  0
   -5.5793   -3.7800    0.0000 O   0  0  0  0  0  0  0  0  0  0  0  0
   -6.2711   -6.3619    0.0000 C   0  0  0  0  0  0  0  0  0  0  0  0
   -7.7629   -6.2051    0.0000 O   0  0  0  0  0  0  0  0  0  0  0  0
  1  2  1  0
  3  2  1  6
  3  4  1  0
  4  5  1  0
  5  6  1  6
  6  7  1  0
  7  8  2  0
  8  9  1  0
  9 10  1  0
 10 11  1  0
 11 12  2  0
 12 13  1  0
 13 14  2  0
 14 15  1  0
 15 16  2  0
  9 17  2  0
 17 18  1  0
 18 19  2  0
 19 20  1  0
 20 21  2  0
 21 22  1  0
 22 23  2  0
 23 24  1  0
 24 25  2  0
 25 26  1  0
 26 27  2  0
 27 28  1  0
  5 29  1  0
 29 30  1  1
 29 31  1  0
 31 32  1  1
 31  3  1  0
 19  7  1  0
 28 20  1  0
 16 11  1  0
 27 22  1  0
M  END
>  <Compound_ID>  (9) 
CHEMBL3601074

>  <Molecule Name>  (9) 
nan

>  <Molecular Weight>  (9) 
451.51

>  <AlogP>  (9) 
1.8

>  <Smiles>  (9) 
OC[C@H]1C[C@@H](Nc2nc(Nc3cccnc3)ncc2-c2nc3cnccc3s2)[C@H](O)[C@@H]1O

>  <Standard Type>  (9) 
IC50

>  <Standard Relation>  (9) 
'='

>  <Standard Units>  (9) 
nM

>  <Standard Value>  (9) 
11.0

>  <Assay ChEMBL ID>  (9) 
CHEMBL3603417

>  <Assay Description>  (9) 
Inhibition of human IRAK4 (unknown origin)

>  <BAO Format ID>  (9) 
BAO_0000357

>  <BAO Label>  (9) 
single protein format

>  <Assay Organism>  (9) 
Homo sapiens

>  <Target ChEMBL ID>  (9) 
CHEMBL3778

>  <Target Name>  (9) 
Interleukin-1 receptor-associated kinase 4

>  <Target Organism>  (9) 
Homo sapiens

>  <Target Type>  (9) 
SINGLE PROTEIN

>  <Document ChEMBL ID>  (9) 
CHEMBL3600286

>  <Source Description>  (9) 
Scientific Literature

>  <Document Journal>  (9) 
Bioorg Med Chem Lett

>  <Document Year>  (9) 
2015.0

>  <Active>  (9) 
1.0

>  <bits>  (9) 
<rdkit.DataStructs.cDataStructs.ExplicitBitVect object at 0x000001D1B3CC3BC0>

>  <Group>  (9) 
G1

$$$$

     RDKit          2D

 29 32  0  0  0  0  0  0  0  0999 V2000
   -8.2322   -4.6564    0.0000 C   0  0  0  0  0  0  0  0  0  0  0  0
   -6.8056   -5.1199    0.0000 N   0  0  0  0  0  0  0  0  0  0  0  0
   -5.5921   -4.2382    0.0000 C   0  0  0  0  0  0  0  0  0  0  0  0
   -4.3786   -5.1199    0.0000 C   0  0  0  0  0  0  0  0  0  0  0  0
   -2.9520   -4.6564    0.0000 N   0  0  0  0  0  0  0  0  0  0  0  0
   -2.6401   -3.1891    0.0000 C   0  0  0  0  0  0  0  0  0  0  0  0
   -3.7548   -2.1855    0.0000 O   0  0  0  0  0  0  0  0  0  0  0  0
   -1.2135   -2.7256    0.0000 C   0  0  0  0  0  0  0  0  0  0  0  0
   -0.0000   -3.6073    0.0000 C   0  0  0  0  0  0  0  0  0  0  0  0
    1.2135   -2.7256    0.0000 N   0  0  0  0  0  0  0  0  0  0  0  0
    0.7500   -1.2990    0.0000 N   0  0  0  0  0  0  0  0  0  0  0  0
    1.5000    0.0000    0.0000 C   0  0  0  0  0  0  0  0  0  0  0  0
    0.7500    1.2990    0.0000 C   0  0  0  0  0  0  0  0  0  0  0  0
   -0.7500    1.2990    0.0000 C   0  0  0  0  0  0  0  0  0  0  0  0
   -1.5000    2.5981    0.0000 N   0  0  0  0  0  0  0  0  0  0  0  0
   -0.7500    3.8971    0.0000 C   0  0  0  0  0  0  0  0  0  0  0  0
    0.7500    3.8971    0.0000 C   0  0  0  0  0  0  0  0  0  0  0  0
    1.5000    5.1962    0.0000 C   0  0  0  0  0  0  0  0  0  0  0  0
    0.7500    6.4952    0.0000 C   0  0  0  0  0  0  0  0  0  0  0  0
   -0.7500    6.4952    0.0000 C   0  0  0  0  0  0  0  0  0  0  0  0
   -1.5000    5.1962    0.0000 C   0  0  0  0  0  0  0  0  0  0  0  0
   -3.0000    5.1962    0.0000 N   0  0  0  0  0  0  0  0  0  0  0  0
   -1.5000    0.0000    0.0000 N   0  0  0  0  0  0  0  0  0  0  0  0
   -0.7500   -1.2990    0.0000 C   0  0  0  0  0  0  0  0  0  0  0  0
   -4.8421   -6.5465    0.0000 C   0  0  0  0  0  0  0  0  0  0  0  0
   -3.9604   -7.7600    0.0000 C   0  0  0  0  0  0  0  0  0  0  0  0
   -4.5705   -9.1303    0.0000 F   0  0  0  0  0  0  0  0  0  0  0  0
   -2.4686   -7.6032    0.0000 F   0  0  0  0  0  0  0  0  0  0  0  0
   -6.3421   -6.5465    0.0000 N   0  0  0  0  0  0  0  0  0  0  0  0
  1  2  1  0
  2  3  1  0
  3  4  2  0
  4  5  1  0
  5  6  1  0
  6  7  2  0
  6  8  1  0
  8  9  1  0
  9 10  2  0
 10 11  1  0
 11 12  1  0
 12 13  2  0
 13 14  1  0
 14 15  1  0
 16 15  1  1
 16 17  1  0
 17 18  1  0
 18 19  1  0
 19 20  1  0
 20 21  1  0
 21 22  1  1
 14 23  2  0
 23 24  1  0
  4 25  1  0
 25 26  1  0
 26 27  1  0
 26 28  1  0
 25 29  2  0
 29  2  1  0
 24  8  2  0
 24 11  1  0
 21 16  1  0
M  END
>  <Compound_ID>  (10) 
CHEMBL3590479

>  <Molecule Name>  (10) 
nan

>  <Molecular Weight>  (10) 
404.43

>  <AlogP>  (10) 
2.33

>  <Smiles>  (10) 
Cn1cc(NC(=O)c2cnn3ccc(N[C@@H]4CCCC[C@@H]4N)nc23)c(C(F)F)n1

>  <Standard Type>  (10) 
IC50

>  <Standard Relation>  (10) 
'='

>  <Standard Units>  (10) 
nM

>  <Standard Value>  (10) 
4.0

>  <Assay ChEMBL ID>  (10) 
CHEMBL3637447

>  <Assay Description>  (10) 
Inhibition of IRAK4 in human PBMC

>  <BAO Format ID>  (10) 
BAO_0000357

>  <BAO Label>  (10) 
single protein format

>  <Assay Organism>  (10) 
Homo sapiens

>  <Target ChEMBL ID>  (10) 
CHEMBL3778

>  <Target Name>  (10) 
Interleukin-1 receptor-associated kinase 4

>  <Target Organism>  (10) 
Homo sapiens

>  <Target Type>  (10) 
SINGLE PROTEIN

>  <Document ChEMBL ID>  (10) 
CHEMBL3632465

>  <Source Description>  (10) 
Scientific Literature

>  <Document Journal>  (10) 
Bioorg Med Chem Lett

>  <Document Year>  (10) 
2015.0

>  <Active>  (10) 
1.0

>  <bits>  (10) 
<rdkit.DataStructs.cDataStructs.ExplicitBitVect object at 0x000001D1B3CC3C30>

>  <Group>  (10) 
G1

$$$$

     RDKit          2D

 28 32  0  0  0  0  0  0  0  0999 V2000
    2.5981   -5.1073    0.0000 O   0  0  0  0  0  0  0  0  0  0  0  0
    1.2990   -5.8573    0.0000 C   0  0  0  0  0  0  0  0  0  0  0  0
    1.2990   -7.3573    0.0000 N   0  0  0  0  0  0  0  0  0  0  0  0
   -0.0000   -8.1073    0.0000 C   0  0  0  0  0  0  0  0  0  0  0  0
   -0.0000   -9.6073    0.0000 N   0  0  0  0  0  0  0  0  0  0  0  0
   -1.2990  -10.3573    0.0000 C   0  0  0  0  0  0  0  0  0  0  0  0
   -1.2990  -11.8573    0.0000 C   0  0  0  0  0  0  0  0  0  0  0  0
   -0.0000  -12.6073    0.0000 O   0  0  0  0  0  0  0  0  0  0  0  0
    1.2990  -11.8573    0.0000 C   0  0  0  0  0  0  0  0  0  0  0  0
    1.2990  -10.3573    0.0000 C   0  0  0  0  0  0  0  0  0  0  0  0
   -1.2990   -7.3573    0.0000 N   0  0  0  0  0  0  0  0  0  0  0  0
   -1.2990   -5.8573    0.0000 C   0  0  0  0  0  0  0  0  0  0  0  0
   -2.5981   -5.1073    0.0000 N   0  0  0  0  0  0  0  0  0  0  0  0
   -3.8971   -5.8573    0.0000 C   0  0  0  0  0  0  0  0  0  0  0  0
   -4.0539   -7.3491    0.0000 C   0  0  0  0  0  0  0  0  0  0  0  0
   -5.5211   -7.6610    0.0000 C   0  0  0  0  0  0  0  0  0  0  0  0
   -6.2711   -6.3619    0.0000 N   0  0  0  0  0  0  0  0  0  0  0  0
   -5.2674   -5.2472    0.0000 C   0  0  0  0  0  0  0  0  0  0  0  0
   -0.0000   -5.1073    0.0000 C   0  0  0  0  0  0  0  0  0  0  0  0
   -0.0000   -3.6073    0.0000 C   0  0  0  0  0  0  0  0  0  0  0  0
    1.2135   -2.7256    0.0000 N   0  0  0  0  0  0  0  0  0  0  0  0
    0.7500   -1.2990    0.0000 C   0  0  0  0  0  0  0  0  0  0  0  0
    1.5000    0.0000    0.0000 C   0  0  0  0  0  0  0  0  0  0  0  0
    0.7500    1.2990    0.0000 C   0  0  0  0  0  0  0  0  0  0  0  0
   -0.7500    1.2990    0.0000 C   0  0  0  0  0  0  0  0  0  0  0  0
   -1.5000    0.0000    0.0000 C   0  0  0  0  0  0  0  0  0  0  0  0
   -0.7500   -1.2990    0.0000 C   0  0  0  0  0  0  0  0  0  0  0  0
   -1.2135   -2.7256    0.0000 S   0  0  0  0  0  0  0  0  0  0  0  0
  1  2  2  0
  2  3  1  0
  3  4  1  0
  4  5  1  0
  5  6  1  0
  6  7  1  0
  7  8  1  0
  8  9  1  0
  9 10  1  0
  4 11  2  0
 11 12  1  0
 12 13  1  0
 14 13  1  6
 14 15  1  0
 15 16  1  0
 16 17  1  0
 17 18  1  0
 12 19  2  0
 19 20  1  0
 20 21  2  0
 21 22  1  0
 22 23  2  0
 23 24  1  0
 24 25  2  0
 25 26  1  0
 26 27  2  0
 27 28  1  0
 19  2  1  0
 28 20  1  0
 10  5  1  0
 18 14  1  0
 27 22  1  0
M  END
>  <Compound_ID>  (11) 
CHEMBL3622520

>  <Molecule Name>  (11) 
nan

>  <Molecular Weight>  (11) 
398.49

>  <AlogP>  (11) 
1.66

>  <Smiles>  (11) 
O=c1[nH]c(N2CCOCC2)nc(N[C@@H]2CCNC2)c1-c1nc2ccccc2s1

>  <Standard Type>  (11) 
IC50

>  <Standard Relation>  (11) 
'='

>  <Standard Units>  (11) 
nM

>  <Standard Value>  (11) 
36.0

>  <Assay ChEMBL ID>  (11) 
CHEMBL3625600

>  <Assay Description>  (11) 
Inhibition of IRAK4 (unknown origin) using 5FAM-RKRQGSVRRRVHCCOOH as substrate after 30 mins by IMAP assay

>  <BAO Format ID>  (11) 
BAO_0000357

>  <BAO Label>  (11) 
single protein format

>  <Assay Organism>  (11) 
Homo sapiens

>  <Target ChEMBL ID>  (11) 
CHEMBL3778

>  <Target Name>  (11) 
Interleukin-1 receptor-associated kinase 4

>  <Target Organism>  (11) 
Homo sapiens

>  <Target Type>  (11) 
SINGLE PROTEIN

>  <Document ChEMBL ID>  (11) 
CHEMBL3621203

>  <Source Description>  (11) 
Scientific Literature

>  <Document Journal>  (11) 
ACS Med Chem Lett

>  <Document Year>  (11) 
2015.0

>  <Active>  (11) 
1.0

>  <bits>  (11) 
<rdkit.DataStructs.cDataStructs.ExplicitBitVect object at 0x000001D1B3CC3CA0>

>  <Group>  (11) 
G1

$$$$

     RDKit          2D

 35 42  0  0  0  0  0  0  0  0999 V2000
    7.0384   -5.9220    0.0000 C   0  0  0  0  0  0  0  0  0  0  0  0
    6.3474   -4.5907    0.0000 N   0  0  0  0  0  0  0  0  0  0  0  0
    4.8489   -4.5234    0.0000 C   0  0  0  0  0  0  0  0  0  0  0  0
    4.0414   -5.7874    0.0000 C   0  0  0  0  0  0  0  0  0  0  0  0
    2.5382   -5.8249    0.0000 C   0  0  0  0  0  0  0  0  0  0  0  0
    3.2490   -4.5040    0.0000 O   0  0  0  0  0  0  0  0  0  0  0  0
    2.6595   -3.1247    0.0000 C   0  0  0  0  0  0  0  0  0  0  0  0
    3.6464   -1.9951    0.0000 C   0  0  0  0  0  0  0  0  0  0  0  0
    4.1580   -3.1920    0.0000 C   0  0  0  0  0  0  0  0  0  0  0  0
    4.9655   -1.9279    0.0000 O   0  0  0  0  0  0  0  0  0  0  0  0
    6.4640   -1.9952    0.0000 C   0  0  0  0  0  0  0  0  0  0  0  0
    1.2135   -2.7256    0.0000 N   0  0  0  0  0  0  0  0  0  0  0  0
    0.7500   -1.2990    0.0000 C   0  0  0  0  0  0  0  0  0  0  0  0
    1.5000    0.0000    0.0000 C   0  0  0  0  0  0  0  0  0  0  0  0
    0.7500    1.2990    0.0000 C   0  0  0  0  0  0  0  0  0  0  0  0
   -0.7500    1.2990    0.0000 C   0  0  0  0  0  0  0  0  0  0  0  0
   -1.5000    0.0000    0.0000 C   0  0  0  0  0  0  0  0  0  0  0  0
   -0.7500   -1.2990    0.0000 C   0  0  0  0  0  0  0  0  0  0  0  0
   -1.2135   -2.7256    0.0000 C   0  0  0  0  0  0  0  0  0  0  0  0
   -2.5518   -3.5691    0.0000 C   0  0  0  0  0  0  0  0  0  0  0  0
   -2.6191   -5.0676    0.0000 C   0  0  0  0  0  0  0  0  0  0  0  0
   -1.3550   -5.8751    0.0000 C   0  0  0  0  0  0  0  0  0  0  0  0
   -1.0212   -7.3375    0.0000 C   0  0  0  0  0  0  0  0  0  0  0  0
   -1.8846   -8.5641    0.0000 C   0  0  0  0  0  0  0  0  0  0  0  0
   -1.2541   -9.9251    0.0000 C   0  0  0  0  0  0  0  0  0  0  0  0
    0.2399  -10.0596    0.0000 C   0  0  0  0  0  0  0  0  0  0  0  0
    1.1033   -8.8330    0.0000 C   0  0  0  0  0  0  0  0  0  0  0  0
    0.4728   -7.4720    0.0000 C   0  0  0  0  0  0  0  0  0  0  0  0
    1.0623   -6.0927    0.0000 N   0  0  0  0  0  0  0  0  0  0  0  0
   -0.0673   -5.1058    0.0000 C   0  0  0  0  0  0  0  0  0  0  0  0
   -0.0000   -3.6073    0.0000 C   0  0  0  0  0  0  0  0  0  0  0  0
   -4.0650   -5.4667    0.0000 C   0  0  0  0  0  0  0  0  0  0  0  0
   -4.5921   -6.8710    0.0000 O   0  0  0  0  0  0  0  0  0  0  0  0
   -4.8913   -4.2148    0.0000 N   0  0  0  0  0  0  0  0  0  0  0  0
   -3.9561   -3.0421    0.0000 C   0  0  0  0  0  0  0  0  0  0  0  0
  1  2  1  0
  3  2  1  6
  3  4  1  0
  5  4  1  6
  5  6  1  0
  6  7  1  0
  7  8  1  1
  7  9  1  0
  9 10  1  6
 10 11  1  0
  7 12  1  0
 12 13  1  0
 13 14  2  0
 14 15  1  0
 15 16  2  0
 16 17  1  0
 17 18  2  0
 18 19  1  0
 19 20  2  0
 20 21  1  0
 21 22  2  0
 22 23  1  0
 23 24  2  0
 24 25  1  0
 25 26  2  0
 26 27  1  0
 27 28  2  0
 28 29  1  0
 29 30  1  0
 30 31  2  0
 21 32  1  0
 32 33  2  0
 32 34  1  0
 34 35  1  0
  9  3  1  0
 31 12  1  0
 29  5  1  0
 18 13  1  0
 31 19  1  0
 35 20  1  0
 30 22  1  0
 28 23  1  0
M  END
>  <Compound_ID>  (12) 
CHEMBL388978

>  <Molecule Name>  (12) 
STAUROSPORINE

>  <Molecular Weight>  (12) 
466.54

>  <AlogP>  (12) 
4.35

>  <Smiles>  (12) 
CN[C@@H]1C[C@H]2O[C@@](C)([C@@H]1OC)n1c3ccccc3c3c4c(c5c6ccccc6n2c5c31)C(=O)NC4

>  <Standard Type>  (12) 
IC50

>  <Standard Relation>  (12) 
'='

>  <Standard Units>  (12) 
nM

>  <Standard Value>  (12) 
6.19

>  <Assay ChEMBL ID>  (12) 
CHEMBL4145877

>  <Assay Description>  (12) 
Inhibition of IRAK4 (unknown origin)

>  <BAO Format ID>  (12) 
BAO_0000357

>  <BAO Label>  (12) 
single protein format

>  <Assay Organism>  (12) 
Homo sapiens

>  <Target ChEMBL ID>  (12) 
CHEMBL3778

>  <Target Name>  (12) 
Interleukin-1 receptor-associated kinase 4

>  <Target Organism>  (12) 
Homo sapiens

>  <Target Type>  (12) 
SINGLE PROTEIN

>  <Document ChEMBL ID>  (12) 
CHEMBL4145442

>  <Source Description>  (12) 
Scientific Literature

>  <Document Journal>  (12) 
Eur J Med Chem

>  <Document Year>  (12) 
2017.0

>  <Active>  (12) 
1.0

>  <bits>  (12) 
<rdkit.DataStructs.cDataStructs.ExplicitBitVect object at 0x000001D1B3CC3D10>

>  <Group>  (12) 
G1

$$$$

     RDKit          2D

 28 31  0  0  0  0  0  0  0  0999 V2000
   -5.3605    2.7564    0.0000 N   0  0  0  0  0  0  0  0  0  0  0  0
   -4.2458    1.7527    0.0000 C   0  0  0  0  0  0  0  0  0  0  0  0
   -4.5577    0.2855    0.0000 C   0  0  0  0  0  0  0  0  0  0  0  0
   -3.4430   -0.7182    0.0000 C   0  0  0  0  0  0  0  0  0  0  0  0
   -3.7548   -2.1855    0.0000 C   0  0  0  0  0  0  0  0  0  0  0  0
   -5.1814   -2.6490    0.0000 N   0  0  0  0  0  0  0  0  0  0  0  0
   -5.4933   -4.1162    0.0000 C   0  0  0  0  0  0  0  0  0  0  0  0
   -6.9199   -4.5797    0.0000 C   0  0  0  0  0  0  0  0  0  0  0  0
   -7.2317   -6.0469    0.0000 C   0  0  0  0  0  0  0  0  0  0  0  0
   -6.1170   -7.0506    0.0000 C   0  0  0  0  0  0  0  0  0  0  0  0
   -6.4289   -8.5179    0.0000 Cl  0  0  0  0  0  0  0  0  0  0  0  0
   -4.6904   -6.5871    0.0000 C   0  0  0  0  0  0  0  0  0  0  0  0
   -4.3786   -5.1199    0.0000 C   0  0  0  0  0  0  0  0  0  0  0  0
   -2.9520   -4.6564    0.0000 N   0  0  0  0  0  0  0  0  0  0  0  0
   -1.8373   -5.6601    0.0000 C   0  0  0  0  0  0  0  0  0  0  0  0
   -2.1491   -7.1273    0.0000 O   0  0  0  0  0  0  0  0  0  0  0  0
   -0.4107   -5.1965    0.0000 C   0  0  0  0  0  0  0  0  0  0  0  0
    0.0528   -3.7700    0.0000 C   0  0  0  0  0  0  0  0  0  0  0  0
    1.5528   -3.7700    0.0000 N   0  0  0  0  0  0  0  0  0  0  0  0
    2.0164   -5.1965    0.0000 N   0  0  0  0  0  0  0  0  0  0  0  0
    3.3867   -5.8066    0.0000 C   0  0  0  0  0  0  0  0  0  0  0  0
    3.5435   -7.2984    0.0000 C   0  0  0  0  0  0  0  0  0  0  0  0
    4.9138   -7.9085    0.0000 O   0  0  0  0  0  0  0  0  0  0  0  0
    2.3300   -8.1801    0.0000 C   0  0  0  0  0  0  0  0  0  0  0  0
    0.9596   -7.5700    0.0000 N   0  0  0  0  0  0  0  0  0  0  0  0
    0.8028   -6.0782    0.0000 C   0  0  0  0  0  0  0  0  0  0  0  0
   -6.2961   -1.6453    0.0000 C   0  0  0  0  0  0  0  0  0  0  0  0
   -5.9843   -0.1781    0.0000 C   0  0  0  0  0  0  0  0  0  0  0  0
  1  2  1  0
  2  3  1  0
  3  4  1  0
  4  5  1  0
  5  6  1  0
  6  7  1  0
  7  8  2  0
  8  9  1  0
  9 10  2  0
 10 11  1  0
 10 12  1  0
 12 13  2  0
 13 14  1  0
 14 15  1  0
 15 16  2  0
 15 17  1  0
 17 18  1  0
 18 19  2  0
 19 20  1  0
 20 21  1  0
 21 22  2  0
 22 23  1  0
 22 24  1  0
 24 25  2  0
 25 26  1  0
  6 27  1  0
 27 28  1  0
 28  3  1  0
 13  7  1  0
 26 17  2  0
 26 20  1  0
M  END
>  <Compound_ID>  (13) 
CHEMBL3353219

>  <Molecule Name>  (13) 
nan

>  <Molecular Weight>  (13) 
400.87

>  <AlogP>  (13) 
2.52

>  <Smiles>  (13) 
NCC1CCN(c2ccc(Cl)cc2NC(=O)c2cnn3cc(O)cnc23)CC1

>  <Standard Type>  (13) 
IC50

>  <Standard Relation>  (13) 
'='

>  <Standard Units>  (13) 
nM

>  <Standard Value>  (13) 
1.0

>  <Assay ChEMBL ID>  (13) 
CHEMBL3380177

>  <Assay Description>  (13) 
Inhibition of IRAK4 (unknown origin)

>  <BAO Format ID>  (13) 
BAO_0000357

>  <BAO Label>  (13) 
single protein format

>  <Assay Organism>  (13) 
Homo sapiens

>  <Target ChEMBL ID>  (13) 
CHEMBL3778

>  <Target Name>  (13) 
Interleukin-1 receptor-associated kinase 4

>  <Target Organism>  (13) 
Homo sapiens

>  <Target Type>  (13) 
SINGLE PROTEIN

>  <Document ChEMBL ID>  (13) 
CHEMBL3351266

>  <Source Description>  (13) 
Scientific Literature

>  <Document Journal>  (13) 
J Med Chem

>  <Document Year>  (13) 
2015.0

>  <Active>  (13) 
1.0

>  <bits>  (13) 
<rdkit.DataStructs.cDataStructs.ExplicitBitVect object at 0x000001D1B3CC3D80>

>  <Group>  (13) 
G1

$$$$

     RDKit          2D

 29 32  0  0  0  0  0  0  0  0999 V2000
   -5.3120   -0.6406    0.0000 C   0  0  0  0  0  0  0  0  0  0  0  0
   -3.8855   -0.1771    0.0000 C   0  0  0  0  0  0  0  0  0  0  0  0
   -2.7707   -1.1807    0.0000 C   0  0  0  0  0  0  0  0  0  0  0  0
   -3.5736    1.2902    0.0000 N   0  0  0  0  0  0  0  0  0  0  0  0
   -2.1470    1.7537    0.0000 C   0  0  0  0  0  0  0  0  0  0  0  0
   -1.8351    3.2209    0.0000 C   0  0  0  0  0  0  0  0  0  0  0  0
   -2.9499    4.2246    0.0000 C   0  0  0  0  0  0  0  0  0  0  0  0
   -4.4171    3.9127    0.0000 C   0  0  0  0  0  0  0  0  0  0  0  0
   -5.1671    5.2118    0.0000 N   0  0  0  0  0  0  0  0  0  0  0  0
   -6.6589    5.3686    0.0000 C   0  0  0  0  0  0  0  0  0  0  0  0
   -7.2690    6.7389    0.0000 C   0  0  0  0  0  0  0  0  0  0  0  0
   -8.7607    6.8957    0.0000 C   0  0  0  0  0  0  0  0  0  0  0  0
   -9.3709    8.2660    0.0000 O   0  0  0  0  0  0  0  0  0  0  0  0
   -4.1634    6.3265    0.0000 N   0  0  0  0  0  0  0  0  0  0  0  0
   -2.7931    5.7164    0.0000 N   0  0  0  0  0  0  0  0  0  0  0  0
   -0.4086    3.6844    0.0000 C   0  0  0  0  0  0  0  0  0  0  0  0
    0.7062    2.6807    0.0000 N   0  0  0  0  0  0  0  0  0  0  0  0
    0.3943    1.2135    0.0000 C   0  0  0  0  0  0  0  0  0  0  0  0
    1.2760    0.0000    0.0000 S   0  0  0  0  0  0  0  0  0  0  0  0
    0.3943   -1.2135    0.0000 C   0  0  0  0  0  0  0  0  0  0  0  0
    0.8578   -2.6401    0.0000 C   0  0  0  0  0  0  0  0  0  0  0  0
   -0.1459   -3.7548    0.0000 C   0  0  0  0  0  0  0  0  0  0  0  0
    0.3177   -5.1814    0.0000 C   0  0  0  0  0  0  0  0  0  0  0  0
    1.7849   -5.4933    0.0000 C   0  0  0  0  0  0  0  0  0  0  0  0
    2.2484   -6.9199    0.0000 O   0  0  0  0  0  0  0  0  0  0  0  0
    2.7886   -4.3786    0.0000 N   0  0  0  0  0  0  0  0  0  0  0  0
    2.3250   -2.9520    0.0000 C   0  0  0  0  0  0  0  0  0  0  0  0
   -1.0323   -0.7500    0.0000 C   0  0  0  0  0  0  0  0  0  0  0  0
   -1.0323    0.7500    0.0000 C   0  0  0  0  0  0  0  0  0  0  0  0
  1  2  1  0
  2  3  1  0
  2  4  1  0
  4  5  1  0
  5  6  2  0
  6  7  1  0
  7  8  2  0
  8  9  1  0
  9 10  1  0
 10 11  1  0
 11 12  1  0
 12 13  1  0
  9 14  1  0
 14 15  2  0
  6 16  1  0
 16 17  2  0
 17 18  1  0
 18 19  1  0
 19 20  1  0
 20 21  1  0
 21 22  1  0
 22 23  2  0
 23 24  1  0
 24 25  2  0
 24 26  1  0
 26 27  1  0
 20 28  2  0
 28 29  1  0
 29  5  1  0
 15  7  1  0
 29 18  2  0
 27 21  2  0
M  END
>  <Compound_ID>  (14) 
CHEMBL4789541

>  <Molecule Name>  (14) 
nan

>  <Molecular Weight>  (14) 
410.5

>  <AlogP>  (14) 
3.11

>  <Smiles>  (14) 
CC(C)Nc1c(-c2cn(CCCO)nn2)cnc2sc(-c3ccc(=O)[nH]c3)cc12

>  <Standard Type>  (14) 
IC50

>  <Standard Relation>  (14) 
'='

>  <Standard Units>  (14) 
nM

>  <Standard Value>  (14) 
5.2

>  <Assay ChEMBL ID>  (14) 
CHEMBL4739586

>  <Assay Description>  (14) 
Inhibition of IRAK4 (unknown origin) using IPTSPITTTYFFFKKK peptide as substrate in presence of ATP measured after 60 mins by fluorescence assay

>  <BAO Format ID>  (14) 
BAO_0000357

>  <BAO Label>  (14) 
single protein format

>  <Assay Organism>  (14) 
Homo sapiens

>  <Target ChEMBL ID>  (14) 
CHEMBL3778

>  <Target Name>  (14) 
Interleukin-1 receptor-associated kinase 4

>  <Target Organism>  (14) 
Homo sapiens

>  <Target Type>  (14) 
SINGLE PROTEIN

>  <Document ChEMBL ID>  (14) 
CHEMBL4732264

>  <Source Description>  (14) 
Scientific Literature

>  <Document Journal>  (14) 
ACS Med Chem Lett

>  <Document Year>  (14) 
2021.0

>  <Active>  (14) 
1.0

>  <bits>  (14) 
<rdkit.DataStructs.cDataStructs.ExplicitBitVect object at 0x000001D1B3CC3DF0>

>  <Group>  (14) 
G1

$$$$

     RDKit          2D

 29 31  0  0  0  0  0  0  0  0999 V2000
   -5.3120   -0.6406    0.0000 C   0  0  0  0  0  0  0  0  0  0  0  0
   -3.8855   -0.1771    0.0000 C   0  0  0  0  0  0  0  0  0  0  0  0
   -2.7707   -1.1807    0.0000 C   0  0  0  0  0  0  0  0  0  0  0  0
   -3.5736    1.2902    0.0000 N   0  0  0  0  0  0  0  0  0  0  0  0
   -2.1470    1.7537    0.0000 C   0  0  0  0  0  0  0  0  0  0  0  0
   -1.8351    3.2209    0.0000 C   0  0  0  0  0  0  0  0  0  0  0  0
   -2.9499    4.2246    0.0000 C   0  0  0  0  0  0  0  0  0  0  0  0
   -4.3764    3.7611    0.0000 O   0  0  0  0  0  0  0  0  0  0  0  0
   -2.6380    5.6918    0.0000 N   0  0  0  0  0  0  0  0  0  0  0  0
   -3.7527    6.6955    0.0000 C   0  0  0  0  0  0  0  0  0  0  0  0
   -3.4408    8.1628    0.0000 C   0  0  0  0  0  0  0  0  0  0  0  0
   -2.0143    8.6263    0.0000 F   0  0  0  0  0  0  0  0  0  0  0  0
   -4.5556    9.1664    0.0000 C   0  0  0  0  0  0  0  0  0  0  0  0
   -5.5592    8.0517    0.0000 C   0  0  0  0  0  0  0  0  0  0  0  0
   -3.5519   10.2812    0.0000 C   0  0  0  0  0  0  0  0  0  0  0  0
   -5.6703   10.1701    0.0000 O   0  0  0  0  0  0  0  0  0  0  0  0
   -0.4086    3.6844    0.0000 C   0  0  0  0  0  0  0  0  0  0  0  0
    0.7062    2.6807    0.0000 N   0  0  0  0  0  0  0  0  0  0  0  0
    0.3943    1.2135    0.0000 C   0  0  0  0  0  0  0  0  0  0  0  0
    1.2760    0.0000    0.0000 S   0  0  0  0  0  0  0  0  0  0  0  0
    0.3943   -1.2135    0.0000 C   0  0  0  0  0  0  0  0  0  0  0  0
    0.8578   -2.6401    0.0000 C   0  0  0  0  0  0  0  0  0  0  0  0
   -0.1459   -3.7548    0.0000 C   0  0  0  0  0  0  0  0  0  0  0  0
    0.3177   -5.1814    0.0000 C   0  0  0  0  0  0  0  0  0  0  0  0
    1.7849   -5.4933    0.0000 N   0  0  0  0  0  0  0  0  0  0  0  0
    2.7886   -4.3786    0.0000 C   0  0  0  0  0  0  0  0  0  0  0  0
    2.3250   -2.9520    0.0000 C   0  0  0  0  0  0  0  0  0  0  0  0
   -1.0323   -0.7500    0.0000 C   0  0  0  0  0  0  0  0  0  0  0  0
   -1.0323    0.7500    0.0000 C   0  0  0  0  0  0  0  0  0  0  0  0
  1  2  1  0
  2  3  1  0
  2  4  1  0
  4  5  1  0
  5  6  2  0
  6  7  1  0
  7  8  2  0
  7  9  1  0
  9 10  1  0
 10 11  1  0
 11 12  1  6
 11 13  1  0
 13 14  1  0
 13 15  1  0
 13 16  1  0
  6 17  1  0
 17 18  2  0
 18 19  1  0
 19 20  1  0
 20 21  1  0
 21 22  1  0
 22 23  2  0
 23 24  1  0
 24 25  2  0
 25 26  1  0
 26 27  2  0
 21 28  2  0
 28 29  1  0
 29  5  1  0
 29 19  2  0
 27 22  1  0
M  END
>  <Compound_ID>  (15) 
CHEMBL4756721

>  <Molecule Name>  (15) 
nan

>  <Molecular Weight>  (15) 
416.52

>  <AlogP>  (15) 
4.02

>  <Smiles>  (15) 
CC(C)Nc1c(C(=O)NC[C@@H](F)C(C)(C)O)cnc2sc(-c3ccncc3)cc12

>  <Standard Type>  (15) 
IC50

>  <Standard Relation>  (15) 
'='

>  <Standard Units>  (15) 
nM

>  <Standard Value>  (15) 
4.8

>  <Assay ChEMBL ID>  (15) 
CHEMBL4739586

>  <Assay Description>  (15) 
Inhibition of IRAK4 (unknown origin) using IPTSPITTTYFFFKKK peptide as substrate in presence of ATP measured after 60 mins by fluorescence assay

>  <BAO Format ID>  (15) 
BAO_0000357

>  <BAO Label>  (15) 
single protein format

>  <Assay Organism>  (15) 
Homo sapiens

>  <Target ChEMBL ID>  (15) 
CHEMBL3778

>  <Target Name>  (15) 
Interleukin-1 receptor-associated kinase 4

>  <Target Organism>  (15) 
Homo sapiens

>  <Target Type>  (15) 
SINGLE PROTEIN

>  <Document ChEMBL ID>  (15) 
CHEMBL4732264

>  <Source Description>  (15) 
Scientific Literature

>  <Document Journal>  (15) 
ACS Med Chem Lett

>  <Document Year>  (15) 
2021.0

>  <Active>  (15) 
1.0

>  <bits>  (15) 
<rdkit.DataStructs.cDataStructs.ExplicitBitVect object at 0x000001D1B3CC3E60>

>  <Group>  (15) 
G1

$$$$

     RDKit          2D

 31 35  0  0  0  0  0  0  0  0999 V2000
    0.7500   -6.4952    0.0000 O   0  0  0  0  0  0  0  0  0  0  0  0
   -0.7500   -6.4952    0.0000 C   0  0  0  0  0  0  0  0  0  0  0  0
   -1.5000   -7.7942    0.0000 N   0  0  0  0  0  0  0  0  0  0  0  0
   -3.0000   -7.7942    0.0000 C   0  0  0  0  0  0  0  0  0  0  0  0
   -3.7500   -9.0933    0.0000 N   0  0  0  0  0  0  0  0  0  0  0  0
   -3.1399  -10.4636    0.0000 C   0  0  0  0  0  0  0  0  0  0  0  0
   -4.2546  -11.4673    0.0000 C   0  0  0  0  0  0  0  0  0  0  0  0
   -5.5537  -10.7173    0.0000 C   0  0  0  0  0  0  0  0  0  0  0  0
   -5.2418   -9.2501    0.0000 C   0  0  0  0  0  0  0  0  0  0  0  0
   -6.2455   -8.1353    0.0000 C   0  0  0  0  0  0  0  0  0  0  0  0
   -7.7127   -8.4472    0.0000 F   0  0  0  0  0  0  0  0  0  0  0  0
   -3.7500   -6.4952    0.0000 N   0  0  0  0  0  0  0  0  0  0  0  0
   -3.0000   -5.1962    0.0000 C   0  0  0  0  0  0  0  0  0  0  0  0
   -3.7500   -3.8971    0.0000 N   0  0  0  0  0  0  0  0  0  0  0  0
   -5.2500   -3.8971    0.0000 C   0  0  0  0  0  0  0  0  0  0  0  0
   -6.0000   -2.5981    0.0000 C   0  0  0  0  0  0  0  0  0  0  0  0
   -7.5000   -2.5981    0.0000 C   0  0  0  0  0  0  0  0  0  0  0  0
   -8.2500   -3.8971    0.0000 C   0  0  0  0  0  0  0  0  0  0  0  0
   -7.5000   -5.1962    0.0000 N   0  0  0  0  0  0  0  0  0  0  0  0
   -6.0000   -5.1962    0.0000 C   0  0  0  0  0  0  0  0  0  0  0  0
   -1.5000   -5.1962    0.0000 C   0  0  0  0  0  0  0  0  0  0  0  0
   -0.7500   -3.8971    0.0000 C   0  0  0  0  0  0  0  0  0  0  0  0
    0.7500   -3.8971    0.0000 C   0  0  0  0  0  0  0  0  0  0  0  0
    1.5000   -2.5981    0.0000 C   0  0  0  0  0  0  0  0  0  0  0  0
    0.7500   -1.2990    0.0000 C   0  0  0  0  0  0  0  0  0  0  0  0
    1.5000    0.0000    0.0000 C   0  0  0  0  0  0  0  0  0  0  0  0
    0.7500    1.2990    0.0000 C   0  0  0  0  0  0  0  0  0  0  0  0
   -0.7500    1.2990    0.0000 C   0  0  0  0  0  0  0  0  0  0  0  0
   -1.5000    0.0000    0.0000 C   0  0  0  0  0  0  0  0  0  0  0  0
   -0.7500   -1.2990    0.0000 C   0  0  0  0  0  0  0  0  0  0  0  0
   -1.5000   -2.5981    0.0000 N   0  0  0  0  0  0  0  0  0  0  0  0
  1  2  2  0
  2  3  1  0
  3  4  1  0
  4  5  1  0
  5  6  1  0
  6  7  1  0
  7  8  1  0
  8  9  1  0
  9 10  1  1
 10 11  1  0
  4 12  2  0
 12 13  1  0
 13 14  1  0
 15 14  1  1
 15 16  1  0
 16 17  1  0
 17 18  1  0
 18 19  1  0
 19 20  1  0
 13 21  2  0
 21 22  1  0
 22 23  2  0
 23 24  1  0
 24 25  2  0
 25 26  1  0
 26 27  2  0
 27 28  1  0
 28 29  2  0
 29 30  1  0
 30 31  2  0
 21  2  1  0
 31 22  1  0
  9  5  1  0
 20 15  1  0
 30 25  1  0
M  END
>  <Compound_ID>  (16) 
CHEMBL4112330

>  <Molecule Name>  (16) 
nan

>  <Molecular Weight>  (16) 
422.51

>  <AlogP>  (16) 
3.09

>  <Smiles>  (16) 
O=c1[nH]c(N2CCC[C@H]2CF)nc(N[C@@H]2CCCNC2)c1-c1ccc2ccccc2n1

>  <Standard Type>  (16) 
IC50

>  <Standard Relation>  (16) 
'='

>  <Standard Units>  (16) 
nM

>  <Standard Value>  (16) 
85.0

>  <Assay ChEMBL ID>  (16) 
CHEMBL3887893

>  <Assay Description>  (16) 
IMAP technology (Molecular Devices): A 20 ul reaction mixture contains 10 mM TriHCl, pH 7.2, 0.5 nM GST tagged IRAK4 (SignalChem), 100 nM fluorescent peptide substrate (RP7030, Molecular Devices), 100 uM ATP, 1 mM DTT, 1 mM MgCl2, and 0.01% Tween 20. The reaction is initiated by the addition of ATP. After incubation for 30 minutes at 25° C., 60 ul of Progressive IMAP Reagent (Molecular Devices) is added to stop the reaction. Change in RP7030's FP is determined by a FP reader (Analyst HT, LJL BioSystems).

>  <BAO Format ID>  (16) 
BAO_0000357

>  <BAO Label>  (16) 
single protein format

>  <Assay Organism>  (16) 
Homo sapiens

>  <Target ChEMBL ID>  (16) 
CHEMBL3778

>  <Target Name>  (16) 
Interleukin-1 receptor-associated kinase 4

>  <Target Organism>  (16) 
Homo sapiens

>  <Target Type>  (16) 
SINGLE PROTEIN

>  <Document ChEMBL ID>  (16) 
CHEMBL3886492

>  <Source Description>  (16) 
BindingDB Database

>  <Document Journal>  (16) 
nan

>  <Document Year>  (16) 
2015.0

>  <Active>  (16) 
1.0

>  <bits>  (16) 
<rdkit.DataStructs.cDataStructs.ExplicitBitVect object at 0x000001D1B3CC3ED0>

>  <Group>  (16) 
G1

$$$$

     RDKit          2D

 22 25  0  0  0  0  0  0  0  0999 V2000
   -4.3786   -5.1199    0.0000 C   0  0  0  0  0  0  0  0  0  0  0  0
   -5.4933   -4.1162    0.0000 C   0  0  0  0  0  0  0  0  0  0  0  0
   -5.1814   -2.6490    0.0000 C   0  0  0  0  0  0  0  0  0  0  0  0
   -6.2961   -1.6453    0.0000 N   0  0  0  0  0  0  0  0  0  0  0  0
   -5.9843   -0.1781    0.0000 C   0  0  0  0  0  0  0  0  0  0  0  0
   -4.5577    0.2855    0.0000 C   0  0  0  0  0  0  0  0  0  0  0  0
   -4.2458    1.7527    0.0000 C   0  0  0  0  0  0  0  0  0  0  0  0
   -5.3605    2.7564    0.0000 N   0  0  0  0  0  0  0  0  0  0  0  0
   -6.7871    2.2929    0.0000 C   0  0  0  0  0  0  0  0  0  0  0  0
   -7.0990    0.8256    0.0000 C   0  0  0  0  0  0  0  0  0  0  0  0
   -3.7548   -2.1855    0.0000 N   0  0  0  0  0  0  0  0  0  0  0  0
   -2.6401   -3.1891    0.0000 C   0  0  0  0  0  0  0  0  0  0  0  0
   -1.2135   -2.7256    0.0000 N   0  0  0  0  0  0  0  0  0  0  0  0
   -0.0000   -3.6073    0.0000 C   0  0  0  0  0  0  0  0  0  0  0  0
    1.2135   -2.7256    0.0000 N   0  0  0  0  0  0  0  0  0  0  0  0
    0.7500   -1.2990    0.0000 C   0  0  0  0  0  0  0  0  0  0  0  0
    1.5000    0.0000    0.0000 C   0  0  0  0  0  0  0  0  0  0  0  0
    0.7500    1.2990    0.0000 C   0  0  0  0  0  0  0  0  0  0  0  0
   -0.7500    1.2990    0.0000 C   0  0  0  0  0  0  0  0  0  0  0  0
   -1.5000    0.0000    0.0000 C   0  0  0  0  0  0  0  0  0  0  0  0
   -0.7500   -1.2990    0.0000 C   0  0  0  0  0  0  0  0  0  0  0  0
   -2.9520   -4.6564    0.0000 C   0  0  0  0  0  0  0  0  0  0  0  0
  1  2  2  0
  2  3  1  0
  3  4  1  0
  4  5  1  0
  5  6  1  0
  6  7  1  0
  7  8  1  0
  8  9  1  0
  9 10  1  0
  3 11  2  0
 11 12  1  0
 12 13  1  0
 13 14  1  0
 14 15  2  0
 15 16  1  0
 16 17  2  0
 17 18  1  0
 18 19  2  0
 19 20  1  0
 20 21  2  0
 12 22  2  0
 22  1  1  0
 10  5  1  0
 21 13  1  0
 21 16  1  0
M  END
>  <Compound_ID>  (17) 
CHEMBL255272

>  <Molecule Name>  (17) 
nan

>  <Molecular Weight>  (17) 
293.37

>  <AlogP>  (17) 
2.58

>  <Smiles>  (17) 
c1cc(NC2CCNCC2)nc(-n2cnc3ccccc32)c1

>  <Standard Type>  (17) 
IC50

>  <Standard Relation>  (17) 
'='

>  <Standard Units>  (17) 
nM

>  <Standard Value>  (17) 
70.0

>  <Assay ChEMBL ID>  (17) 
CHEMBL921622

>  <Assay Description>  (17) 
Inhibition of IRAK4

>  <BAO Format ID>  (17) 
BAO_0000357

>  <BAO Label>  (17) 
single protein format

>  <Assay Organism>  (17) 
None

>  <Target ChEMBL ID>  (17) 
CHEMBL3778

>  <Target Name>  (17) 
Interleukin-1 receptor-associated kinase 4

>  <Target Organism>  (17) 
Homo sapiens

>  <Target Type>  (17) 
SINGLE PROTEIN

>  <Document ChEMBL ID>  (17) 
CHEMBL1145577

>  <Source Description>  (17) 
Scientific Literature

>  <Document Journal>  (17) 
Bioorg Med Chem Lett

>  <Document Year>  (17) 
2008.0

>  <Active>  (17) 
1.0

>  <bits>  (17) 
<rdkit.DataStructs.cDataStructs.ExplicitBitVect object at 0x000001D1B3CC3F40>

>  <Group>  (17) 
G1

$$$$

     RDKit          2D

 30 34  0  0  0  0  0  0  0  0999 V2000
    3.0000  -10.3923    0.0000 N   0  0  0  0  0  0  0  0  0  0  0  0
    3.7500   -9.0933    0.0000 C   0  0  0  0  0  0  0  0  0  0  0  0
    3.0000   -7.7942    0.0000 C   0  0  0  0  0  0  0  0  0  0  0  0
    1.5000   -7.7942    0.0000 C   0  0  0  0  0  0  0  0  0  0  0  0
    0.7500   -6.4952    0.0000 C   0  0  0  0  0  0  0  0  0  0  0  0
    1.5000   -5.1962    0.0000 N   0  0  0  0  0  0  0  0  0  0  0  0
    0.7500   -3.8971    0.0000 C   0  0  0  0  0  0  0  0  0  0  0  0
    1.5000   -2.5981    0.0000 C   0  0  0  0  0  0  0  0  0  0  0  0
    0.7500   -1.2990    0.0000 C   0  0  0  0  0  0  0  0  0  0  0  0
    1.5000    0.0000    0.0000 N   0  0  0  0  0  0  0  0  0  0  0  0
    0.7500    1.2990    0.0000 C   0  0  0  0  0  0  0  0  0  0  0  0
   -0.7500    1.2990    0.0000 C   0  0  0  0  0  0  0  0  0  0  0  0
   -1.5000    0.0000    0.0000 C   0  0  0  0  0  0  0  0  0  0  0  0
   -0.7500   -1.2990    0.0000 C   0  0  0  0  0  0  0  0  0  0  0  0
   -1.5000   -2.5981    0.0000 C   0  0  0  0  0  0  0  0  0  0  0  0
   -0.7500   -3.8971    0.0000 C   0  0  0  0  0  0  0  0  0  0  0  0
   -1.5000   -5.1962    0.0000 N   0  0  0  0  0  0  0  0  0  0  0  0
   -3.0000   -5.1962    0.0000 C   0  0  0  0  0  0  0  0  0  0  0  0
   -3.7500   -3.8971    0.0000 O   0  0  0  0  0  0  0  0  0  0  0  0
   -3.7500   -6.4952    0.0000 C   0  0  0  0  0  0  0  0  0  0  0  0
   -3.1399   -7.8655    0.0000 C   0  0  0  0  0  0  0  0  0  0  0  0
   -4.2546   -8.8692    0.0000 S   0  0  0  0  0  0  0  0  0  0  0  0
   -5.5537   -8.1192    0.0000 C   0  0  0  0  0  0  0  0  0  0  0  0
   -6.9802   -8.5827    0.0000 C   0  0  0  0  0  0  0  0  0  0  0  0
   -8.0950   -7.5790    0.0000 N   0  0  0  0  0  0  0  0  0  0  0  0
   -7.7831   -6.1118    0.0000 C   0  0  0  0  0  0  0  0  0  0  0  0
   -6.3565   -5.6483    0.0000 N   0  0  0  0  0  0  0  0  0  0  0  0
   -5.2418   -6.6520    0.0000 C   0  0  0  0  0  0  0  0  0  0  0  0
    3.0000   -5.1962    0.0000 C   0  0  0  0  0  0  0  0  0  0  0  0
    3.7500   -6.4952    0.0000 C   0  0  0  0  0  0  0  0  0  0  0  0
  1  2  1  0
  2  3  1  0
  3  4  1  0
  4  5  1  0
  5  6  1  0
  6  7  1  0
  7  8  2  0
  8  9  1  0
  9 10  2  0
 10 11  1  0
 11 12  2  0
 12 13  1  0
 13 14  2  0
 14 15  1  0
 15 16  2  0
 16 17  1  0
 17 18  1  0
 18 19  2  0
 18 20  1  0
 20 21  2  0
 21 22  1  0
 22 23  1  0
 23 24  2  0
 24 25  1  0
 25 26  2  0
 26 27  1  0
 27 28  2  0
  6 29  1  0
 29 30  1  0
 30  3  1  0
 16  7  1  0
 28 20  1  0
 14  9  1  0
 28 23  1  0
M  END
>  <Compound_ID>  (18) 
CHEMBL3953525

>  <Molecule Name>  (18) 
nan

>  <Molecular Weight>  (18) 
418.53

>  <AlogP>  (18) 
3.67

>  <Smiles>  (18) 
NCC1CCN(c2cc3ncccc3cc2NC(=O)c2csc3cncnc23)CC1

>  <Standard Type>  (18) 
IC50

>  <Standard Relation>  (18) 
'='

>  <Standard Units>  (18) 
nM

>  <Standard Value>  (18) 
12.0

>  <Assay ChEMBL ID>  (18) 
CHEMBL3887963

>  <Assay Description>  (18) 
In vitro IRAK-1 and IRAK-4 Assay: Purified recombinant IRAK-4 protein was incubated with 250 uM synthetic peptide(KKARFSRFAGSSPSQSSMVAR) in 30 ul of kinase buffer including (20 mM MOPS pH7.2, 25 mM beta glycerol phosphate, 5 mM EGTA, 1 mM sodium orthovanadate, 1 mM DTT, 50 uM ATP, 20 mM MgCl2, 10 uCi gamma-33P, 0.1% BSA) for the indicated time. For purified recombinant IRAK-1 protein kinase assay, 50 uM ATP was used. A 25 ul aliquot of the reaction mixture was transferred on to p81 phosphocellulose squares (Upstate Biotechnology, Lake Placid, N.Y.). The assay squares were washed three times with 0.75% phosphoric acid and once with acetone. Enzyme activity was measured by determining the bound radioactivity by liquid scintillation counting.

>  <BAO Format ID>  (18) 
BAO_0000357

>  <BAO Label>  (18) 
single protein format

>  <Assay Organism>  (18) 
Homo sapiens

>  <Target ChEMBL ID>  (18) 
CHEMBL3778

>  <Target Name>  (18) 
Interleukin-1 receptor-associated kinase 4

>  <Target Organism>  (18) 
Homo sapiens

>  <Target Type>  (18) 
SINGLE PROTEIN

>  <Document ChEMBL ID>  (18) 
CHEMBL3886519

>  <Source Description>  (18) 
BindingDB Database

>  <Document Journal>  (18) 
nan

>  <Document Year>  (18) 
2016.0

>  <Active>  (18) 
1.0

>  <bits>  (18) 
<rdkit.DataStructs.cDataStructs.ExplicitBitVect object at 0x000001D1B3CFC040>

>  <Group>  (18) 
G1

$$$$

     RDKit          2D

 26 29  0  0  0  0  0  0  0  0999 V2000
   -7.7206    6.7722    0.0000 C   0  0  0  0  0  0  0  0  0  0  0  0
   -8.0325    5.3050    0.0000 N   0  0  0  0  0  0  0  0  0  0  0  0
   -9.4590    4.8414    0.0000 C   0  0  0  0  0  0  0  0  0  0  0  0
   -6.9177    4.3013    0.0000 C   0  0  0  0  0  0  0  0  0  0  0  0
   -5.4912    4.7648    0.0000 C   0  0  0  0  0  0  0  0  0  0  0  0
   -4.3764    3.7611    0.0000 C   0  0  0  0  0  0  0  0  0  0  0  0
   -4.6883    2.2939    0.0000 C   0  0  0  0  0  0  0  0  0  0  0  0
   -3.5736    1.2902    0.0000 N   0  0  0  0  0  0  0  0  0  0  0  0
   -2.1470    1.7537    0.0000 C   0  0  0  0  0  0  0  0  0  0  0  0
   -1.8351    3.2209    0.0000 N   0  0  0  0  0  0  0  0  0  0  0  0
   -0.4086    3.6844    0.0000 C   0  0  0  0  0  0  0  0  0  0  0  0
   -0.0967    5.1517    0.0000 N   0  0  0  0  0  0  0  0  0  0  0  0
    1.3299    5.6152    0.0000 C   0  0  0  0  0  0  0  0  0  0  0  0
    2.4446    4.6115    0.0000 C   0  0  0  0  0  0  0  0  0  0  0  0
    3.8712    5.0750    0.0000 C   0  0  0  0  0  0  0  0  0  0  0  0
    4.1831    6.5422    0.0000 C   0  0  0  0  0  0  0  0  0  0  0  0
    3.0684    7.5459    0.0000 C   0  0  0  0  0  0  0  0  0  0  0  0
    1.6418    7.0824    0.0000 C   0  0  0  0  0  0  0  0  0  0  0  0
    0.7062    2.6807    0.0000 N   0  0  0  0  0  0  0  0  0  0  0  0
    0.3943    1.2135    0.0000 C   0  0  0  0  0  0  0  0  0  0  0  0
    1.2760    0.0000    0.0000 N   0  0  0  0  0  0  0  0  0  0  0  0
    0.3943   -1.2135    0.0000 C   0  0  0  0  0  0  0  0  0  0  0  0
   -1.0323   -0.7500    0.0000 C   0  0  0  0  0  0  0  0  0  0  0  0
   -1.0323    0.7500    0.0000 C   0  0  0  0  0  0  0  0  0  0  0  0
   -6.1149    1.8303    0.0000 C   0  0  0  0  0  0  0  0  0  0  0  0
   -7.2296    2.8340    0.0000 C   0  0  0  0  0  0  0  0  0  0  0  0
  1  2  1  0
  2  3  1  0
  4  2  1  1
  4  5  1  0
  5  6  1  0
  6  7  1  0
  7  8  1  6
  8  9  1  0
  9 10  2  0
 10 11  1  0
 11 12  1  0
 12 13  1  0
 13 14  2  0
 14 15  1  0
 15 16  2  0
 16 17  1  0
 17 18  2  0
 11 19  2  0
 19 20  1  0
 20 21  1  0
 21 22  1  0
 22 23  2  0
 23 24  1  0
  7 25  1  0
 25 26  1  0
 26  4  1  0
 24  9  1  0
 18 13  1  0
 24 20  2  0
M  END
>  <Compound_ID>  (19) 
CHEMBL3353186

>  <Molecule Name>  (19) 
nan

>  <Molecular Weight>  (19) 
350.47

>  <AlogP>  (19) 
3.99

>  <Smiles>  (19) 
CN(C)[C@H]1CC[C@H](Nc2nc(Nc3ccccc3)nc3[nH]ccc23)CC1

>  <Standard Type>  (19) 
IC50

>  <Standard Relation>  (19) 
'='

>  <Standard Units>  (19) 
nM

>  <Standard Value>  (19) 
100.0

>  <Assay ChEMBL ID>  (19) 
CHEMBL3380178

>  <Assay Description>  (19) 
Inhibition of N-terminal GST-fused full-length human IRAK4 (1 to 460 amino acids) assessed as reduction in phosphorylated substrates by Caliper assay

>  <BAO Format ID>  (19) 
BAO_0000357

>  <BAO Label>  (19) 
single protein format

>  <Assay Organism>  (19) 
Homo sapiens

>  <Target ChEMBL ID>  (19) 
CHEMBL3778

>  <Target Name>  (19) 
Interleukin-1 receptor-associated kinase 4

>  <Target Organism>  (19) 
Homo sapiens

>  <Target Type>  (19) 
SINGLE PROTEIN

>  <Document ChEMBL ID>  (19) 
CHEMBL3351266

>  <Source Description>  (19) 
Scientific Literature

>  <Document Journal>  (19) 
J Med Chem

>  <Document Year>  (19) 
2015.0

>  <Active>  (19) 
1.0

>  <bits>  (19) 
<rdkit.DataStructs.cDataStructs.ExplicitBitVect object at 0x000001D1B3CFC0B0>

>  <Group>  (19) 
G1

$$$$

     RDKit          2D

 28 31  0  0  0  0  0  0  0  0999 V2000
   -8.2322   -4.6564    0.0000 C   0  0  0  0  0  0  0  0  0  0  0  0
   -6.8056   -5.1199    0.0000 N   0  0  0  0  0  0  0  0  0  0  0  0
   -5.5921   -4.2382    0.0000 C   0  0  0  0  0  0  0  0  0  0  0  0
   -4.3786   -5.1199    0.0000 C   0  0  0  0  0  0  0  0  0  0  0  0
   -2.9520   -4.6564    0.0000 N   0  0  0  0  0  0  0  0  0  0  0  0
   -2.6401   -3.1891    0.0000 C   0  0  0  0  0  0  0  0  0  0  0  0
   -3.7548   -2.1855    0.0000 O   0  0  0  0  0  0  0  0  0  0  0  0
   -1.2135   -2.7256    0.0000 C   0  0  0  0  0  0  0  0  0  0  0  0
   -0.0000   -3.6073    0.0000 C   0  0  0  0  0  0  0  0  0  0  0  0
    1.2135   -2.7256    0.0000 C   0  0  0  0  0  0  0  0  0  0  0  0
    0.7500   -1.2990    0.0000 C   0  0  0  0  0  0  0  0  0  0  0  0
    1.5000    0.0000    0.0000 C   0  0  0  0  0  0  0  0  0  0  0  0
    0.7500    1.2990    0.0000 C   0  0  0  0  0  0  0  0  0  0  0  0
   -0.7500    1.2990    0.0000 C   0  0  0  0  0  0  0  0  0  0  0  0
   -1.5000    2.5981    0.0000 N   0  0  0  0  0  0  0  0  0  0  0  0
   -0.7500    3.8971    0.0000 C   0  0  0  0  0  0  0  0  0  0  0  0
    0.7500    3.8971    0.0000 C   0  0  0  0  0  0  0  0  0  0  0  0
    1.5000    5.1962    0.0000 C   0  0  0  0  0  0  0  0  0  0  0  0
    0.7500    6.4952    0.0000 C   0  0  0  0  0  0  0  0  0  0  0  0
   -0.7500    6.4952    0.0000 N   0  0  0  0  0  0  0  0  0  0  0  0
   -1.5000    5.1962    0.0000 C   0  0  0  0  0  0  0  0  0  0  0  0
   -1.5000    0.0000    0.0000 N   0  0  0  0  0  0  0  0  0  0  0  0
   -0.7500   -1.2990    0.0000 N   0  0  0  0  0  0  0  0  0  0  0  0
   -4.8421   -6.5465    0.0000 C   0  0  0  0  0  0  0  0  0  0  0  0
   -3.9604   -7.7600    0.0000 C   0  0  0  0  0  0  0  0  0  0  0  0
   -4.5705   -9.1303    0.0000 F   0  0  0  0  0  0  0  0  0  0  0  0
   -2.4686   -7.6032    0.0000 F   0  0  0  0  0  0  0  0  0  0  0  0
   -6.3421   -6.5465    0.0000 N   0  0  0  0  0  0  0  0  0  0  0  0
  1  2  1  0
  2  3  1  0
  3  4  2  0
  4  5  1  0
  5  6  1  0
  6  7  2  0
  6  8  1  0
  8  9  2  0
  9 10  1  0
 10 11  2  0
 11 12  1  0
 12 13  2  0
 13 14  1  0
 14 15  1  0
 16 15  1  1
 16 17  1  0
 17 18  1  0
 18 19  1  0
 19 20  1  0
 20 21  1  0
 14 22  2  0
 22 23  1  0
  4 24  1  0
 24 25  1  0
 25 26  1  0
 25 27  1  0
 24 28  2  0
 28  2  1  0
 23  8  1  0
 23 11  1  0
 21 16  1  0
M  END
>  <Compound_ID>  (20) 
CHEMBL3634508

>  <Molecule Name>  (20) 
nan

>  <Molecular Weight>  (20) 
389.41

>  <AlogP>  (20) 
2.42

>  <Smiles>  (20) 
Cn1cc(NC(=O)c2ccc3ccc(N[C@@H]4CCCNC4)nn23)c(C(F)F)n1

>  <Standard Type>  (20) 
IC50

>  <Standard Relation>  (20) 
'='

>  <Standard Units>  (20) 
nM

>  <Standard Value>  (20) 
5.0

>  <Assay ChEMBL ID>  (20) 
CHEMBL3637447

>  <Assay Description>  (20) 
Inhibition of IRAK4 in human PBMC

>  <BAO Format ID>  (20) 
BAO_0000357

>  <BAO Label>  (20) 
single protein format

>  <Assay Organism>  (20) 
Homo sapiens

>  <Target ChEMBL ID>  (20) 
CHEMBL3778

>  <Target Name>  (20) 
Interleukin-1 receptor-associated kinase 4

>  <Target Organism>  (20) 
Homo sapiens

>  <Target Type>  (20) 
SINGLE PROTEIN

>  <Document ChEMBL ID>  (20) 
CHEMBL3632465

>  <Source Description>  (20) 
Scientific Literature

>  <Document Journal>  (20) 
Bioorg Med Chem Lett

>  <Document Year>  (20) 
2015.0

>  <Active>  (20) 
1.0

>  <bits>  (20) 
<rdkit.DataStructs.cDataStructs.ExplicitBitVect object at 0x000001D1B3CFC120>

>  <Group>  (20) 
G1

$$$$

     RDKit          2D

 29 32  0  0  0  0  0  0  0  0999 V2000
    3.0000    0.0000    0.0000 C   0  0  0  0  0  0  0  0  0  0  0  0
    1.5000    0.0000    0.0000 C   0  0  0  0  0  0  0  0  0  0  0  0
    0.7500   -1.2990    0.0000 C   0  0  0  0  0  0  0  0  0  0  0  0
   -0.7500   -1.2990    0.0000 C   0  0  0  0  0  0  0  0  0  0  0  0
   -1.5000   -2.5981    0.0000 C   0  0  0  0  0  0  0  0  0  0  0  0
   -0.8899   -3.9684    0.0000 N   0  0  0  0  0  0  0  0  0  0  0  0
   -2.0046   -4.9721    0.0000 C   0  0  0  0  0  0  0  0  0  0  0  0
   -1.8478   -6.4639    0.0000 C   0  0  0  0  0  0  0  0  0  0  0  0
   -0.4775   -7.0740    0.0000 O   0  0  0  0  0  0  0  0  0  0  0  0
   -3.0613   -7.3456    0.0000 N   0  0  0  0  0  0  0  0  0  0  0  0
   -2.9046   -8.8373    0.0000 C   0  0  0  0  0  0  0  0  0  0  0  0
   -1.6055   -9.5873    0.0000 C   0  0  0  0  0  0  0  0  0  0  0  0
   -1.9174  -11.0546    0.0000 N   0  0  0  0  0  0  0  0  0  0  0  0
   -0.9137  -12.1693    0.0000 C   0  0  0  0  0  0  0  0  0  0  0  0
   -1.3772  -13.5959    0.0000 C   0  0  0  0  0  0  0  0  0  0  0  0
   -0.3735  -14.7106    0.0000 C   0  0  0  0  0  0  0  0  0  0  0  0
    1.0937  -14.3987    0.0000 O   0  0  0  0  0  0  0  0  0  0  0  0
    1.5572  -12.9721    0.0000 C   0  0  0  0  0  0  0  0  0  0  0  0
    0.5535  -11.8574    0.0000 C   0  0  0  0  0  0  0  0  0  0  0  0
   -3.4092  -11.2113    0.0000 N   0  0  0  0  0  0  0  0  0  0  0  0
   -4.0193   -9.8410    0.0000 C   0  0  0  0  0  0  0  0  0  0  0  0
   -5.4865   -9.5292    0.0000 C   0  0  0  0  0  0  0  0  0  0  0  0
   -6.4902  -10.6439    0.0000 N   0  0  0  0  0  0  0  0  0  0  0  0
   -5.9500   -8.1026    0.0000 O   0  0  0  0  0  0  0  0  0  0  0  0
   -3.3037   -4.2221    0.0000 C   0  0  0  0  0  0  0  0  0  0  0  0
   -2.9918   -2.7549    0.0000 O   0  0  0  0  0  0  0  0  0  0  0  0
   -1.5000    0.0000    0.0000 C   0  0  0  0  0  0  0  0  0  0  0  0
   -0.7500    1.2990    0.0000 C   0  0  0  0  0  0  0  0  0  0  0  0
    0.7500    1.2990    0.0000 N   0  0  0  0  0  0  0  0  0  0  0  0
  1  2  1  0
  2  3  2  0
  3  4  1  0
  4  5  1  0
  5  6  2  0
  6  7  1  0
  7  8  1  0
  8  9  2  0
  8 10  1  0
 10 11  1  0
 11 12  2  0
 12 13  1  0
 13 14  1  0
 14 15  1  0
 15 16  1  0
 16 17  1  0
 17 18  1  0
 18 19  1  0
 13 20  1  0
 20 21  2  0
 21 22  1  0
 22 23  1  0
 22 24  2  0
  7 25  2  0
 25 26  1  0
  4 27  2  0
 27 28  1  0
 28 29  2  0
 29  2  1  0
 26  5  1  0
 21 11  1  0
 19 14  1  0
M  END
>  <Compound_ID>  (21) 
CHEMBL3353187

>  <Molecule Name>  (21) 
nan

>  <Molecular Weight>  (21) 
432.87

>  <AlogP>  (21) 
1.94

>  <Smiles>  (21) 
Cc1cc(-c2nc(C(=O)Nc3cn(C4CCOCC4)nc3C(N)=O)co2)ccn1

>  <Standard Type>  (21) 
IC50

>  <Standard Relation>  (21) 
'='

>  <Standard Units>  (21) 
nM

>  <Standard Value>  (21) 
21.0

>  <Assay ChEMBL ID>  (21) 
CHEMBL3380177

>  <Assay Description>  (21) 
Inhibition of IRAK4 (unknown origin)

>  <BAO Format ID>  (21) 
BAO_0000357

>  <BAO Label>  (21) 
single protein format

>  <Assay Organism>  (21) 
Homo sapiens

>  <Target ChEMBL ID>  (21) 
CHEMBL3778

>  <Target Name>  (21) 
Interleukin-1 receptor-associated kinase 4

>  <Target Organism>  (21) 
Homo sapiens

>  <Target Type>  (21) 
SINGLE PROTEIN

>  <Document ChEMBL ID>  (21) 
CHEMBL3351266

>  <Source Description>  (21) 
Scientific Literature

>  <Document Journal>  (21) 
J Med Chem

>  <Document Year>  (21) 
2015.0

>  <Active>  (21) 
1.0

>  <bits>  (21) 
<rdkit.DataStructs.cDataStructs.ExplicitBitVect object at 0x000001D1B3CFC190>

>  <Group>  (21) 
G1

$$$$

     RDKit          2D

 34 37  0  0  0  0  0  0  0  0999 V2000
    1.3299    5.6152    0.0000 C   0  0  0  0  0  0  0  0  0  0  0  0
   -0.0967    5.1517    0.0000 O   0  0  0  0  0  0  0  0  0  0  0  0
   -0.4086    3.6844    0.0000 C   0  0  0  0  0  0  0  0  0  0  0  0
    0.7062    2.6807    0.0000 C   0  0  0  0  0  0  0  0  0  0  0  0
    0.3943    1.2135    0.0000 C   0  0  0  0  0  0  0  0  0  0  0  0
    1.2760    0.0000    0.0000 N   0  0  0  0  0  0  0  0  0  0  0  0
    0.3943   -1.2135    0.0000 N   0  0  0  0  0  0  0  0  0  0  0  0
    0.8578   -2.6401    0.0000 C   0  0  0  0  0  0  0  0  0  0  0  0
   -0.1459   -3.7548    0.0000 C   0  0  0  0  0  0  0  0  0  0  0  0
   -1.6131   -3.4430    0.0000 O   0  0  0  0  0  0  0  0  0  0  0  0
    0.3177   -5.1814    0.0000 N   0  0  0  0  0  0  0  0  0  0  0  0
   -0.6860   -6.2961    0.0000 C   0  0  0  0  0  0  0  0  0  0  0  0
   -0.2225   -7.7227    0.0000 C   0  0  0  0  0  0  0  0  0  0  0  0
    1.2447   -8.0346    0.0000 N   0  0  0  0  0  0  0  0  0  0  0  0
    1.7082   -9.4612    0.0000 C   0  0  0  0  0  0  0  0  0  0  0  0
    2.2484   -6.9199    0.0000 C   0  0  0  0  0  0  0  0  0  0  0  0
    1.7849   -5.4933    0.0000 C   0  0  0  0  0  0  0  0  0  0  0  0
   -1.0323   -0.7500    0.0000 C   0  0  0  0  0  0  0  0  0  0  0  0
   -1.0323    0.7500    0.0000 C   0  0  0  0  0  0  0  0  0  0  0  0
   -2.1470    1.7537    0.0000 C   0  0  0  0  0  0  0  0  0  0  0  0
   -1.8351    3.2209    0.0000 C   0  0  0  0  0  0  0  0  0  0  0  0
   -2.9499    4.2246    0.0000 N   0  0  0  0  0  0  0  0  0  0  0  0
   -2.6380    5.6918    0.0000 C   0  0  0  0  0  0  0  0  0  0  0  0
   -1.2114    6.1554    0.0000 O   0  0  0  0  0  0  0  0  0  0  0  0
   -3.7527    6.6955    0.0000 C   0  0  0  0  0  0  0  0  0  0  0  0
   -3.4408    8.1628    0.0000 C   0  0  0  0  0  0  0  0  0  0  0  0
   -4.5556    9.1664    0.0000 C   0  0  0  0  0  0  0  0  0  0  0  0
   -5.9821    8.7029    0.0000 C   0  0  0  0  0  0  0  0  0  0  0  0
   -6.2940    7.2357    0.0000 C   0  0  0  0  0  0  0  0  0  0  0  0
   -7.7206    6.7722    0.0000 C   0  0  0  0  0  0  0  0  0  0  0  0
   -9.1472    6.3086    0.0000 F   0  0  0  0  0  0  0  0  0  0  0  0
   -8.1841    8.1988    0.0000 F   0  0  0  0  0  0  0  0  0  0  0  0
   -7.2571    5.3456    0.0000 F   0  0  0  0  0  0  0  0  0  0  0  0
   -5.1793    6.2320    0.0000 N   0  0  0  0  0  0  0  0  0  0  0  0
  1  2  1  0
  2  3  1  0
  3  4  2  0
  4  5  1  0
  5  6  2  0
  6  7  1  0
  7  8  1  0
  8  9  1  0
  9 10  2  0
  9 11  1  0
 11 12  1  0
 12 13  1  0
 13 14  1  0
 14 15  1  0
 14 16  1  0
 16 17  1  0
  7 18  1  0
 18 19  2  0
 19 20  1  0
 20 21  2  0
 21 22  1  0
 22 23  1  0
 23 24  2  0
 23 25  1  0
 25 26  2  0
 26 27  1  0
 27 28  2  0
 28 29  1  0
 29 30  1  0
 30 31  1  0
 30 32  1  0
 30 33  1  0
 29 34  2  0
 21  3  1  0
 34 25  1  0
 19  5  1  0
 17 11  1  0
M  END
>  <Compound_ID>  (22) 
CHEMBL4579427

>  <Molecule Name>  (22) 
nan

>  <Molecular Weight>  (22) 
476.46

>  <AlogP>  (22) 
2.49

>  <Smiles>  (22) 
COc1cc2nn(CC(=O)N3CCN(C)CC3)cc2cc1NC(=O)c1cccc(C(F)(F)F)n1

>  <Standard Type>  (22) 
IC50

>  <Standard Relation>  (22) 
'='

>  <Standard Units>  (22) 
nM

>  <Standard Value>  (22) 
33.0

>  <Assay ChEMBL ID>  (22) 
CHEMBL4331758

>  <Assay Description>  (22) 
Inhibition of IRAK4 (unknown origin)

>  <BAO Format ID>  (22) 
BAO_0000357

>  <BAO Label>  (22) 
single protein format

>  <Assay Organism>  (22) 
Homo sapiens

>  <Target ChEMBL ID>  (22) 
CHEMBL3778

>  <Target Name>  (22) 
Interleukin-1 receptor-associated kinase 4

>  <Target Organism>  (22) 
Homo sapiens

>  <Target Type>  (22) 
SINGLE PROTEIN

>  <Document ChEMBL ID>  (22) 
CHEMBL4330088

>  <Source Description>  (22) 
Scientific Literature

>  <Document Journal>  (22) 
Eur J Med Chem

>  <Document Year>  (22) 
2019.0

>  <Active>  (22) 
1.0

>  <bits>  (22) 
<rdkit.DataStructs.cDataStructs.ExplicitBitVect object at 0x000001D1B3CFC200>

>  <Group>  (22) 
G1

$$$$

     RDKit          2D

 28 32  0  0  0  0  0  0  0  0999 V2000
   -4.9294    1.5000    0.0000 C   0  0  0  0  0  0  0  0  0  0  0  0
   -3.6304    0.7500    0.0000 C   0  0  0  0  0  0  0  0  0  0  0  0
   -2.3313    1.5000    0.0000 C   0  0  0  0  0  0  0  0  0  0  0  0
   -1.0323    0.7500    0.0000 N   0  0  0  0  0  0  0  0  0  0  0  0
    0.3943    1.2135    0.0000 C   0  0  0  0  0  0  0  0  0  0  0  0
    0.8578    2.6401    0.0000 C   0  0  0  0  0  0  0  0  0  0  0  0
   -0.0239    3.8536    0.0000 C   0  0  0  0  0  0  0  0  0  0  0  0
    0.8578    5.0672    0.0000 N   0  0  0  0  0  0  0  0  0  0  0  0
    2.2844    4.6036    0.0000 N   0  0  0  0  0  0  0  0  0  0  0  0
    2.2844    3.1036    0.0000 C   0  0  0  0  0  0  0  0  0  0  0  0
    1.2760    0.0000    0.0000 C   0  0  0  0  0  0  0  0  0  0  0  0
    0.3943   -1.2135    0.0000 N   0  0  0  0  0  0  0  0  0  0  0  0
   -1.0323   -0.7500    0.0000 C   0  0  0  0  0  0  0  0  0  0  0  0
   -2.3313   -1.5000    0.0000 C   0  0  0  0  0  0  0  0  0  0  0  0
   -2.3313   -3.0000    0.0000 N   0  0  0  0  0  0  0  0  0  0  0  0
   -3.6304   -3.7500    0.0000 C   0  0  0  0  0  0  0  0  0  0  0  0
   -3.7872   -5.2418    0.0000 C   0  0  0  0  0  0  0  0  0  0  0  0
   -5.2544   -5.5537    0.0000 C   0  0  0  0  0  0  0  0  0  0  0  0
   -5.8645   -6.9240    0.0000 C   0  0  0  0  0  0  0  0  0  0  0  0
   -7.3563   -7.0808    0.0000 N   0  0  0  0  0  0  0  0  0  0  0  0
   -8.2379   -5.8672    0.0000 C   0  0  0  0  0  0  0  0  0  0  0  0
   -9.7297   -6.0240    0.0000 C   0  0  0  0  0  0  0  0  0  0  0  0
  -10.3398   -7.3943    0.0000 C   0  0  0  0  0  0  0  0  0  0  0  0
   -9.4582   -8.6079    0.0000 C   0  0  0  0  0  0  0  0  0  0  0  0
   -7.9664   -8.4511    0.0000 C   0  0  0  0  0  0  0  0  0  0  0  0
   -6.0044   -4.2546    0.0000 N   0  0  0  0  0  0  0  0  0  0  0  0
   -5.0007   -3.1399    0.0000 S   0  0  0  0  0  0  0  0  0  0  0  0
   -3.6304   -0.7500    0.0000 N   0  0  0  0  0  0  0  0  0  0  0  0
  1  2  1  0
  2  3  2  0
  3  4  1  0
  4  5  1  0
  5  6  1  0
  6  7  1  0
  7  8  2  0
  8  9  1  0
  9 10  1  0
  5 11  2  0
 11 12  1  0
 12 13  2  0
 13 14  1  0
 14 15  1  0
 15 16  1  0
 16 17  2  0
 17 18  1  0
 18 19  1  0
 19 20  1  0
 20 21  1  0
 21 22  1  0
 22 23  1  0
 23 24  1  0
 24 25  1  0
 18 26  2  0
 26 27  1  0
 14 28  2  0
 28  2  1  0
 13  4  1  0
 27 16  1  0
 10  6  2  0
 25 20  1  0
M  END
>  <Compound_ID>  (23) 
CHEMBL1739550

>  <Molecule Name>  (23) 
nan

>  <Molecular Weight>  (23) 
394.51

>  <AlogP>  (23) 
3.61

>  <Smiles>  (23) 
Cc1cn2c(-c3cn[nH]c3)cnc2c(Nc2cc(CN3CCCCC3)ns2)n1

>  <Standard Type>  (23) 
IC50

>  <Standard Relation>  (23) 
'='

>  <Standard Units>  (23) 
nM

>  <Standard Value>  (23) 
56.0

>  <Assay ChEMBL ID>  (23) 
CHEMBL2024840

>  <Assay Description>  (23) 
Inhibition of IRAK4

>  <BAO Format ID>  (23) 
BAO_0000357

>  <BAO Label>  (23) 
single protein format

>  <Assay Organism>  (23) 
None

>  <Target ChEMBL ID>  (23) 
CHEMBL3778

>  <Target Name>  (23) 
Interleukin-1 receptor-associated kinase 4

>  <Target Organism>  (23) 
Homo sapiens

>  <Target Type>  (23) 
SINGLE PROTEIN

>  <Document ChEMBL ID>  (23) 
CHEMBL2021851

>  <Source Description>  (23) 
Scientific Literature

>  <Document Journal>  (23) 
Bioorg Med Chem Lett

>  <Document Year>  (23) 
2012.0

>  <Active>  (23) 
1.0

>  <bits>  (23) 
<rdkit.DataStructs.cDataStructs.ExplicitBitVect object at 0x000001D1B3CFC270>

>  <Group>  (23) 
G1

$$$$

     RDKit          2D

 29 32  0  0  0  0  0  0  0  0999 V2000
   -8.2322   -4.6564    0.0000 C   0  0  0  0  0  0  0  0  0  0  0  0
   -6.8056   -5.1199    0.0000 N   0  0  0  0  0  0  0  0  0  0  0  0
   -5.5921   -4.2382    0.0000 C   0  0  0  0  0  0  0  0  0  0  0  0
   -4.3786   -5.1199    0.0000 C   0  0  0  0  0  0  0  0  0  0  0  0
   -2.9520   -4.6564    0.0000 N   0  0  0  0  0  0  0  0  0  0  0  0
   -2.6401   -3.1891    0.0000 C   0  0  0  0  0  0  0  0  0  0  0  0
   -3.7548   -2.1855    0.0000 O   0  0  0  0  0  0  0  0  0  0  0  0
   -1.2135   -2.7256    0.0000 C   0  0  0  0  0  0  0  0  0  0  0  0
   -0.0000   -3.6073    0.0000 C   0  0  0  0  0  0  0  0  0  0  0  0
    1.2135   -2.7256    0.0000 S   0  0  0  0  0  0  0  0  0  0  0  0
    0.7500   -1.2990    0.0000 C   0  0  0  0  0  0  0  0  0  0  0  0
    1.5000    0.0000    0.0000 N   0  0  0  0  0  0  0  0  0  0  0  0
    0.7500    1.2990    0.0000 C   0  0  0  0  0  0  0  0  0  0  0  0
   -0.7500    1.2990    0.0000 C   0  0  0  0  0  0  0  0  0  0  0  0
   -1.5000    2.5981    0.0000 N   0  0  0  0  0  0  0  0  0  0  0  0
   -0.7500    3.8971    0.0000 C   0  0  0  0  0  0  0  0  0  0  0  0
    0.7500    3.8971    0.0000 C   0  0  0  0  0  0  0  0  0  0  0  0
    1.5000    5.1962    0.0000 C   0  0  0  0  0  0  0  0  0  0  0  0
    0.7500    6.4952    0.0000 C   0  0  0  0  0  0  0  0  0  0  0  0
   -0.7500    6.4952    0.0000 N   0  0  0  0  0  0  0  0  0  0  0  0
   -1.5000    5.1962    0.0000 C   0  0  0  0  0  0  0  0  0  0  0  0
   -1.5000    0.0000    0.0000 N   0  0  0  0  0  0  0  0  0  0  0  0
   -0.7500   -1.2990    0.0000 C   0  0  0  0  0  0  0  0  0  0  0  0
   -4.8421   -6.5465    0.0000 C   0  0  0  0  0  0  0  0  0  0  0  0
   -3.9604   -7.7600    0.0000 C   0  0  0  0  0  0  0  0  0  0  0  0
   -3.0787   -8.9735    0.0000 F   0  0  0  0  0  0  0  0  0  0  0  0
   -5.1739   -8.6417    0.0000 F   0  0  0  0  0  0  0  0  0  0  0  0
   -2.7469   -6.8783    0.0000 F   0  0  0  0  0  0  0  0  0  0  0  0
   -6.3421   -6.5465    0.0000 N   0  0  0  0  0  0  0  0  0  0  0  0
  1  2  1  0
  2  3  1  0
  3  4  2  0
  4  5  1  0
  5  6  1  0
  6  7  2  0
  6  8  1  0
  8  9  2  0
  9 10  1  0
 10 11  1  0
 11 12  2  0
 12 13  1  0
 13 14  2  0
 14 15  1  0
 16 15  1  1
 16 17  1  0
 17 18  1  0
 18 19  1  0
 19 20  1  0
 20 21  1  0
 14 22  1  0
 22 23  2  0
  4 24  1  0
 24 25  1  0
 25 26  1  0
 25 27  1  0
 25 28  1  0
 24 29  2  0
 29  2  1  0
 23  8  1  0
 23 11  1  0
 21 16  1  0
M  END
>  <Compound_ID>  (24) 
CHEMBL3634505

>  <Molecule Name>  (24) 
nan

>  <Molecular Weight>  (24) 
425.44

>  <AlogP>  (24) 
2.86

>  <Smiles>  (24) 
Cn1cc(NC(=O)c2csc3ncc(N[C@@H]4CCCNC4)nc23)c(C(F)(F)F)n1

>  <Standard Type>  (24) 
IC50

>  <Standard Relation>  (24) 
'='

>  <Standard Units>  (24) 
nM

>  <Standard Value>  (24) 
7.0

>  <Assay ChEMBL ID>  (24) 
CHEMBL3637447

>  <Assay Description>  (24) 
Inhibition of IRAK4 in human PBMC

>  <BAO Format ID>  (24) 
BAO_0000357

>  <BAO Label>  (24) 
single protein format

>  <Assay Organism>  (24) 
Homo sapiens

>  <Target ChEMBL ID>  (24) 
CHEMBL3778

>  <Target Name>  (24) 
Interleukin-1 receptor-associated kinase 4

>  <Target Organism>  (24) 
Homo sapiens

>  <Target Type>  (24) 
SINGLE PROTEIN

>  <Document ChEMBL ID>  (24) 
CHEMBL3632465

>  <Source Description>  (24) 
Scientific Literature

>  <Document Journal>  (24) 
Bioorg Med Chem Lett

>  <Document Year>  (24) 
2015.0

>  <Active>  (24) 
1.0

>  <bits>  (24) 
<rdkit.DataStructs.cDataStructs.ExplicitBitVect object at 0x000001D1B3CFC2E0>

>  <Group>  (24) 
G1

$$$$

     RDKit          2D

 29 31  0  0  0  0  0  0  0  0999 V2000
  -12.9041   -9.3825    0.0000 C   0  0  0  0  0  0  0  0  0  0  0  0
  -11.7894   -8.3788    0.0000 C   0  0  0  0  0  0  0  0  0  0  0  0
  -10.3628   -8.8423    0.0000 N   0  0  0  0  0  0  0  0  0  0  0  0
  -10.0510  -10.3095    0.0000 C   0  0  0  0  0  0  0  0  0  0  0  0
  -11.1657  -11.3132    0.0000 C   0  0  0  0  0  0  0  0  0  0  0  0
   -9.2481   -7.8386    0.0000 C   0  0  0  0  0  0  0  0  0  0  0  0
   -7.8215   -8.3021    0.0000 C   0  0  0  0  0  0  0  0  0  0  0  0
   -6.7068   -7.2984    0.0000 N   0  0  0  0  0  0  0  0  0  0  0  0
   -5.2802   -7.7620    0.0000 C   0  0  0  0  0  0  0  0  0  0  0  0
   -4.9684   -9.2292    0.0000 O   0  0  0  0  0  0  0  0  0  0  0  0
   -4.1655   -6.7583    0.0000 C   0  0  0  0  0  0  0  0  0  0  0  0
   -2.6983   -7.0701    0.0000 C   0  0  0  0  0  0  0  0  0  0  0  0
   -2.0882   -8.4404    0.0000 C   0  0  0  0  0  0  0  0  0  0  0  0
   -1.9483   -5.7711    0.0000 N   0  0  0  0  0  0  0  0  0  0  0  0
   -2.9520   -4.6564    0.0000 C   0  0  0  0  0  0  0  0  0  0  0  0
   -2.6401   -3.1891    0.0000 C   0  0  0  0  0  0  0  0  0  0  0  0
   -1.2135   -2.7256    0.0000 C   0  0  0  0  0  0  0  0  0  0  0  0
   -0.0000   -3.6073    0.0000 C   0  0  0  0  0  0  0  0  0  0  0  0
    0.0000   -5.1073    0.0000 O   0  0  0  0  0  0  0  0  0  0  0  0
    1.2135   -2.7256    0.0000 N   0  0  0  0  0  0  0  0  0  0  0  0
    0.7500   -1.2990    0.0000 C   0  0  0  0  0  0  0  0  0  0  0  0
    1.5000    0.0000    0.0000 C   0  0  0  0  0  0  0  0  0  0  0  0
    0.7500    1.2990    0.0000 C   0  0  0  0  0  0  0  0  0  0  0  0
   -0.7500    1.2990    0.0000 C   0  0  0  0  0  0  0  0  0  0  0  0
   -1.5000    2.5981    0.0000 F   0  0  0  0  0  0  0  0  0  0  0  0
   -1.5000    0.0000    0.0000 C   0  0  0  0  0  0  0  0  0  0  0  0
   -0.7500   -1.2990    0.0000 C   0  0  0  0  0  0  0  0  0  0  0  0
   -4.3223   -5.2665    0.0000 C   0  0  0  0  0  0  0  0  0  0  0  0
   -5.6213   -4.5165    0.0000 C   0  0  0  0  0  0  0  0  0  0  0  0
  1  2  1  0
  2  3  1  0
  3  4  1  0
  4  5  1  0
  3  6  1  0
  6  7  1  0
  7  8  1  0
  8  9  1  0
  9 10  2  0
  9 11  1  0
 11 12  2  0
 12 13  1  0
 12 14  1  0
 14 15  1  0
 15 16  1  0
 16 17  2  0
 17 18  1  0
 18 19  2  0
 18 20  1  0
 20 21  1  0
 21 22  2  0
 22 23  1  0
 23 24  2  0
 24 25  1  0
 24 26  1  0
 26 27  2  0
 15 28  2  0
 28 29  1  0
 28 11  1  0
 27 17  1  0
 27 21  1  0
M  END
>  <Compound_ID>  (25) 
CHEMBL535

>  <Molecule Name>  (25) 
SUNITINIB

>  <Molecular Weight>  (25) 
398.48

>  <AlogP>  (25) 
3.33

>  <Smiles>  (25) 
CCN(CC)CCNC(=O)c1c(C)[nH]c(/C=C2\C(=O)Nc3ccc(F)cc32)c1C

>  <Standard Type>  (25) 
Kd

>  <Standard Relation>  (25) 
'='

>  <Standard Units>  (25) 
nM

>  <Standard Value>  (25) 
66.0

>  <Assay ChEMBL ID>  (25) 
CHEMBL1908795

>  <Assay Description>  (25) 
Binding constant for IRAK4 kinase domain

>  <BAO Format ID>  (25) 
BAO_0000357

>  <BAO Label>  (25) 
single protein format

>  <Assay Organism>  (25) 
None

>  <Target ChEMBL ID>  (25) 
CHEMBL3778

>  <Target Name>  (25) 
Interleukin-1 receptor-associated kinase 4

>  <Target Organism>  (25) 
Homo sapiens

>  <Target Type>  (25) 
SINGLE PROTEIN

>  <Document ChEMBL ID>  (25) 
CHEMBL1908390

>  <Source Description>  (25) 
Scientific Literature

>  <Document Journal>  (25) 
Nat Biotechnol

>  <Document Year>  (25) 
2011.0

>  <Active>  (25) 
1.0

>  <bits>  (25) 
<rdkit.DataStructs.cDataStructs.ExplicitBitVect object at 0x000001D1B3CFC350>

>  <Group>  (25) 
G1

$$$$

     RDKit          2D

 31 33  0  0  0  0  0  0  0  0999 V2000
   -7.0990    0.8256    0.0000 C   0  0  0  0  0  0  0  0  0  0  0  0
   -5.9843   -0.1781    0.0000 C   0  0  0  0  0  0  0  0  0  0  0  0
   -4.5577    0.2855    0.0000 C   0  0  0  0  0  0  0  0  0  0  0  0
   -6.2961   -1.6453    0.0000 N   0  0  0  0  0  0  0  0  0  0  0  0
   -5.1814   -2.6490    0.0000 C   0  0  0  0  0  0  0  0  0  0  0  0
   -3.7548   -2.1855    0.0000 C   0  0  0  0  0  0  0  0  0  0  0  0
   -2.6401   -3.1891    0.0000 C   0  0  0  0  0  0  0  0  0  0  0  0
   -1.2135   -2.7256    0.0000 N   0  0  0  0  0  0  0  0  0  0  0  0
   -0.0000   -3.6073    0.0000 N   0  0  0  0  0  0  0  0  0  0  0  0
    1.2135   -2.7256    0.0000 C   0  0  0  0  0  0  0  0  0  0  0  0
    0.7500   -1.2990    0.0000 C   0  0  0  0  0  0  0  0  0  0  0  0
    1.5000    0.0000    0.0000 C   0  0  0  0  0  0  0  0  0  0  0  0
    0.7500    1.2990    0.0000 C   0  0  0  0  0  0  0  0  0  0  0  0
    1.5000    2.5981    0.0000 C   0  0  0  0  0  0  0  0  0  0  0  0
    2.2500    3.8971    0.0000 N   0  0  0  0  0  0  0  0  0  0  0  0
   -0.7500    1.2990    0.0000 C   0  0  0  0  0  0  0  0  0  0  0  0
   -1.5000    0.0000    0.0000 N   0  0  0  0  0  0  0  0  0  0  0  0
   -0.7500   -1.2990    0.0000 C   0  0  0  0  0  0  0  0  0  0  0  0
   -2.9520   -4.6564    0.0000 N   0  0  0  0  0  0  0  0  0  0  0  0
   -4.3786   -5.1199    0.0000 C   0  0  0  0  0  0  0  0  0  0  0  0
   -5.4933   -4.1162    0.0000 C   0  0  0  0  0  0  0  0  0  0  0  0
   -6.9199   -4.5797    0.0000 C   0  0  0  0  0  0  0  0  0  0  0  0
   -8.0346   -3.5760    0.0000 O   0  0  0  0  0  0  0  0  0  0  0  0
   -7.2317   -6.0469    0.0000 N   0  0  0  0  0  0  0  0  0  0  0  0
   -8.6583   -6.5105    0.0000 C   0  0  0  0  0  0  0  0  0  0  0  0
   -8.9702   -7.9777    0.0000 C   0  0  0  0  0  0  0  0  0  0  0  0
   -7.8555   -8.9814    0.0000 F   0  0  0  0  0  0  0  0  0  0  0  0
  -10.3968   -8.4412    0.0000 C   0  0  0  0  0  0  0  0  0  0  0  0
  -10.8603   -7.0146    0.0000 C   0  0  0  0  0  0  0  0  0  0  0  0
   -9.9332   -9.8678    0.0000 C   0  0  0  0  0  0  0  0  0  0  0  0
  -11.8234   -8.9047    0.0000 O   0  0  0  0  0  0  0  0  0  0  0  0
  1  2  1  0
  2  3  1  0
  2  4  1  0
  4  5  1  0
  5  6  2  0
  6  7  1  0
  7  8  1  0
  8  9  1  0
  9 10  2  0
 10 11  1  0
 11 12  2  0
 12 13  1  0
 13 14  1  0
 14 15  3  0
 13 16  2  0
 16 17  1  0
 17 18  2  0
  7 19  2  0
 19 20  1  0
 20 21  2  0
 21 22  1  0
 22 23  2  0
 22 24  1  0
 24 25  1  0
 25 26  1  0
 26 27  1  1
 26 28  1  0
 28 29  1  0
 28 30  1  0
 28 31  1  0
 21  5  1  0
 18  8  1  0
 18 11  1  0
M  END
>  <Compound_ID>  (26) 
CHEMBL3948538

>  <Molecule Name>  (26) 
nan

>  <Molecular Weight>  (26) 
425.47

>  <AlogP>  (26) 
2.35

>  <Smiles>  (26) 
CC(C)Nc1cc(-n2ncc3cc(C#N)cnc32)ncc1C(=O)NC[C@@H](F)C(C)(C)O

>  <Standard Type>  (26) 
IC50

>  <Standard Relation>  (26) 
'='

>  <Standard Units>  (26) 
nM

>  <Standard Value>  (26) 
2.6

>  <Assay ChEMBL ID>  (26) 
CHEMBL3887118

>  <Assay Description>  (26) 
Inhibition Assay: The assays were performed in U-bottom 384-well plates. The final assay volume was 30 L prepared from 15 L additions of enzyme and substrates (fluoresceinated peptide and ATP) and test compounds in assay buffer (20 mM HEPES pH 7.2, 10 mM MgCl2, 0.015% Brij 35 and 4 mM DTT). The reaction was initiated by the combination of IRAK4 with substrates and test compounds. The reaction mixture was incubated at room temperature for 60 min. and terminated by adding 45 μL of 35 mM EDTA to each sample. The reaction mixture was analyzed on the Caliper LABCHIP® 3000 (Caliper, Hopkinton, Mass.) by electrophoretic separation of the fluorescent substrate and phosphorylated product. Inhibition data were calculated by comparison to no enzyme control reactions for 100% inhibition and vehicle-only reactions for 0% inhibition. The final concentrations of reagents in the assays are ATP, 500 μM; FL-IPTSPITTTYFFFKKK peptide 1.5 μM; IRAK4, 0.6 nM; and DMSO, 1.6%.

>  <BAO Format ID>  (26) 
BAO_0000357

>  <BAO Label>  (26) 
single protein format

>  <Assay Organism>  (26) 
Homo sapiens

>  <Target ChEMBL ID>  (26) 
CHEMBL3778

>  <Target Name>  (26) 
Interleukin-1 receptor-associated kinase 4

>  <Target Organism>  (26) 
Homo sapiens

>  <Target Type>  (26) 
SINGLE PROTEIN

>  <Document ChEMBL ID>  (26) 
CHEMBL3886172

>  <Source Description>  (26) 
BindingDB Database

>  <Document Journal>  (26) 
nan

>  <Document Year>  (26) 
2015.0

>  <Active>  (26) 
1.0

>  <bits>  (26) 
<rdkit.DataStructs.cDataStructs.ExplicitBitVect object at 0x000001D1B3CFC3C0>

>  <Group>  (26) 
G1

$$$$

     RDKit          2D

 32 35  0  0  0  0  0  0  0  0999 V2000
  -11.5389   -4.9260    0.0000 C   0  0  0  0  0  0  0  0  0  0  0  0
  -12.0025   -3.4994    0.0000 C   0  0  0  0  0  0  0  0  0  0  0  0
  -12.4660   -2.0728    0.0000 C   0  0  0  0  0  0  0  0  0  0  0  0
  -13.4291   -3.9629    0.0000 O   0  0  0  0  0  0  0  0  0  0  0  0
  -10.5759   -3.0359    0.0000 C   0  0  0  0  0  0  0  0  0  0  0  0
   -9.4612   -4.0396    0.0000 C   0  0  0  0  0  0  0  0  0  0  0  0
   -8.0346   -3.5760    0.0000 N   0  0  0  0  0  0  0  0  0  0  0  0
   -6.9199   -4.5797    0.0000 C   0  0  0  0  0  0  0  0  0  0  0  0
   -7.2317   -6.0469    0.0000 O   0  0  0  0  0  0  0  0  0  0  0  0
   -5.4933   -4.1162    0.0000 C   0  0  0  0  0  0  0  0  0  0  0  0
   -5.1814   -2.6490    0.0000 C   0  0  0  0  0  0  0  0  0  0  0  0
   -3.7548   -2.1855    0.0000 N   0  0  0  0  0  0  0  0  0  0  0  0
   -2.6401   -3.1891    0.0000 C   0  0  0  0  0  0  0  0  0  0  0  0
   -1.2135   -2.7256    0.0000 N   0  0  0  0  0  0  0  0  0  0  0  0
   -0.0000   -3.6073    0.0000 C   0  0  0  0  0  0  0  0  0  0  0  0
    1.2135   -2.7256    0.0000 C   0  0  0  0  0  0  0  0  0  0  0  0
    0.7500   -1.2990    0.0000 C   0  0  0  0  0  0  0  0  0  0  0  0
    1.5000    0.0000    0.0000 C   0  0  0  0  0  0  0  0  0  0  0  0
    0.7500    1.2990    0.0000 C   0  0  0  0  0  0  0  0  0  0  0  0
    1.5000    2.5981    0.0000 Cl  0  0  0  0  0  0  0  0  0  0  0  0
   -0.7500    1.2990    0.0000 C   0  0  0  0  0  0  0  0  0  0  0  0
   -1.5000    0.0000    0.0000 N   0  0  0  0  0  0  0  0  0  0  0  0
   -0.7500   -1.2990    0.0000 C   0  0  0  0  0  0  0  0  0  0  0  0
   -2.9520   -4.6564    0.0000 C   0  0  0  0  0  0  0  0  0  0  0  0
   -4.3786   -5.1199    0.0000 C   0  0  0  0  0  0  0  0  0  0  0  0
   -4.6904   -6.5871    0.0000 N   0  0  0  0  0  0  0  0  0  0  0  0
   -3.5757   -7.5908    0.0000 C   0  0  0  0  0  0  0  0  0  0  0  0
   -3.8876   -9.0580    0.0000 C   0  0  0  0  0  0  0  0  0  0  0  0
   -2.7729  -10.0617    0.0000 C   0  0  0  0  0  0  0  0  0  0  0  0
   -1.3463   -9.5982    0.0000 O   0  0  0  0  0  0  0  0  0  0  0  0
   -1.0344   -8.1310    0.0000 C   0  0  0  0  0  0  0  0  0  0  0  0
   -2.1491   -7.1273    0.0000 C   0  0  0  0  0  0  0  0  0  0  0  0
  1  2  1  0
  2  3  1  0
  2  4  1  0
  2  5  1  0
  5  6  1  0
  6  7  1  0
  7  8  1  0
  8  9  2  0
  8 10  1  0
 10 11  2  0
 11 12  1  0
 12 13  2  0
 13 14  1  0
 14 15  1  0
 15 16  2  0
 16 17  1  0
 17 18  2  0
 18 19  1  0
 19 20  1  0
 19 21  2  0
 21 22  1  0
 22 23  2  0
 13 24  1  0
 24 25  2  0
 25 26  1  0
 26 27  1  0
 27 28  1  0
 28 29  1  0
 29 30  1  0
 30 31  1  0
 31 32  1  0
 25 10  1  0
 32 27  1  0
 23 14  1  0
 23 17  1  0
M  END
>  <Compound_ID>  (27) 
CHEMBL3890249

>  <Molecule Name>  (27) 
nan

>  <Molecular Weight>  (27) 
457.96

>  <AlogP>  (27) 
3.56

>  <Smiles>  (27) 
CC(C)(O)CCNC(=O)c1cnc(-n2ccc3cc(Cl)cnc32)cc1NC1CCOCC1

>  <Standard Type>  (27) 
IC50

>  <Standard Relation>  (27) 
'='

>  <Standard Units>  (27) 
nM

>  <Standard Value>  (27) 
3.1

>  <Assay ChEMBL ID>  (27) 
CHEMBL3887118

>  <Assay Description>  (27) 
Inhibition Assay: The assays were performed in U-bottom 384-well plates. The final assay volume was 30 L prepared from 15 L additions of enzyme and substrates (fluoresceinated peptide and ATP) and test compounds in assay buffer (20 mM HEPES pH 7.2, 10 mM MgCl2, 0.015% Brij 35 and 4 mM DTT). The reaction was initiated by the combination of IRAK4 with substrates and test compounds. The reaction mixture was incubated at room temperature for 60 min. and terminated by adding 45 μL of 35 mM EDTA to each sample. The reaction mixture was analyzed on the Caliper LABCHIP® 3000 (Caliper, Hopkinton, Mass.) by electrophoretic separation of the fluorescent substrate and phosphorylated product. Inhibition data were calculated by comparison to no enzyme control reactions for 100% inhibition and vehicle-only reactions for 0% inhibition. The final concentrations of reagents in the assays are ATP, 500 μM; FL-IPTSPITTTYFFFKKK peptide 1.5 μM; IRAK4, 0.6 nM; and DMSO, 1.6%.

>  <BAO Format ID>  (27) 
BAO_0000357

>  <BAO Label>  (27) 
single protein format

>  <Assay Organism>  (27) 
Homo sapiens

>  <Target ChEMBL ID>  (27) 
CHEMBL3778

>  <Target Name>  (27) 
Interleukin-1 receptor-associated kinase 4

>  <Target Organism>  (27) 
Homo sapiens

>  <Target Type>  (27) 
SINGLE PROTEIN

>  <Document ChEMBL ID>  (27) 
CHEMBL3886172

>  <Source Description>  (27) 
BindingDB Database

>  <Document Journal>  (27) 
nan

>  <Document Year>  (27) 
2015.0

>  <Active>  (27) 
1.0

>  <bits>  (27) 
<rdkit.DataStructs.cDataStructs.ExplicitBitVect object at 0x000001D1B3CFC430>

>  <Group>  (27) 
G1

$$$$

     RDKit          2D

 35 39  0  0  0  0  0  0  0  0999 V2000
   -5.1962   -9.6073    0.0000 C   0  0  0  0  0  0  0  0  0  0  0  0
   -3.8971  -10.3573    0.0000 C   0  0  0  0  0  0  0  0  0  0  0  0
   -2.5981   -9.6073    0.0000 C   0  0  0  0  0  0  0  0  0  0  0  0
   -1.2990  -10.3573    0.0000 C   0  0  0  0  0  0  0  0  0  0  0  0
   -0.0000   -9.6073    0.0000 N   0  0  0  0  0  0  0  0  0  0  0  0
   -0.0000   -8.1073    0.0000 C   0  0  0  0  0  0  0  0  0  0  0  0
    1.2990   -7.3573    0.0000 N   0  0  0  0  0  0  0  0  0  0  0  0
    1.2990   -5.8573    0.0000 C   0  0  0  0  0  0  0  0  0  0  0  0
    2.5981   -5.1073    0.0000 N   0  0  0  0  0  0  0  0  0  0  0  0
    3.8971   -5.8573    0.0000 C   0  0  0  0  0  0  0  0  0  0  0  0
    5.2674   -5.2472    0.0000 C   0  0  0  0  0  0  0  0  0  0  0  0
    6.2711   -6.3619    0.0000 C   0  0  0  0  0  0  0  0  0  0  0  0
    7.7629   -6.2051    0.0000 C   0  0  0  0  0  0  0  0  0  0  0  0
    8.6446   -7.4186    0.0000 O   0  0  0  0  0  0  0  0  0  0  0  0
    5.5211   -7.6610    0.0000 C   0  0  0  0  0  0  0  0  0  0  0  0
    6.1312   -9.0313    0.0000 O   0  0  0  0  0  0  0  0  0  0  0  0
    4.0539   -7.3491    0.0000 C   0  0  0  0  0  0  0  0  0  0  0  0
    2.9392   -8.3528    0.0000 O   0  0  0  0  0  0  0  0  0  0  0  0
   -0.0000   -5.1073    0.0000 C   0  0  0  0  0  0  0  0  0  0  0  0
   -0.0000   -3.6073    0.0000 C   0  0  0  0  0  0  0  0  0  0  0  0
    1.2135   -2.7256    0.0000 N   0  0  0  0  0  0  0  0  0  0  0  0
    0.7500   -1.2990    0.0000 C   0  0  0  0  0  0  0  0  0  0  0  0
    1.5000    0.0000    0.0000 C   0  0  0  0  0  0  0  0  0  0  0  0
    0.7500    1.2990    0.0000 C   0  0  0  0  0  0  0  0  0  0  0  0
   -0.7500    1.2990    0.0000 C   0  0  0  0  0  0  0  0  0  0  0  0
   -1.5000    0.0000    0.0000 C   0  0  0  0  0  0  0  0  0  0  0  0
   -0.7500   -1.2990    0.0000 C   0  0  0  0  0  0  0  0  0  0  0  0
   -1.2135   -2.7256    0.0000 S   0  0  0  0  0  0  0  0  0  0  0  0
   -1.2990   -5.8573    0.0000 C   0  0  0  0  0  0  0  0  0  0  0  0
   -2.5981   -5.1073    0.0000 O   0  0  0  0  0  0  0  0  0  0  0  0
   -1.2990   -7.3573    0.0000 N   0  0  0  0  0  0  0  0  0  0  0  0
   -1.2990  -11.8573    0.0000 C   0  0  0  0  0  0  0  0  0  0  0  0
   -2.5981  -12.6073    0.0000 C   0  0  0  0  0  0  0  0  0  0  0  0
   -2.5981  -14.1073    0.0000 C   0  0  0  0  0  0  0  0  0  0  0  0
   -3.8971  -11.8573    0.0000 N   0  0  0  0  0  0  0  0  0  0  0  0
  1  2  1  0
  2  3  2  0
  3  4  1  0
  4  5  1  0
  5  6  1  0
  6  7  2  0
  7  8  1  0
  8  9  1  0
 10  9  1  6
 10 11  1  0
 11 12  1  0
 12 13  1  6
 13 14  1  0
 12 15  1  0
 15 16  1  1
 15 17  1  0
 17 18  1  1
  8 19  2  0
 19 20  1  0
 20 21  2  0
 21 22  1  0
 22 23  2  0
 23 24  1  0
 24 25  2  0
 25 26  1  0
 26 27  2  0
 27 28  1  0
 19 29  1  0
 29 30  2  0
 29 31  1  0
  4 32  2  0
 32 33  1  0
 33 34  1  0
 33 35  2  0
 35  2  1  0
 31  6  1  0
 17 10  1  0
 28 20  1  0
 27 22  1  0
M  END
>  <Compound_ID>  (28) 
CHEMBL3622532

>  <Molecule Name>  (28) 
nan

>  <Molecular Weight>  (28) 
494.58

>  <AlogP>  (28) 
2.32

>  <Smiles>  (28) 
Cc1cc(Nc2nc(N[C@@H]3C[C@H](CO)[C@@H](O)[C@H]3O)c(-c3nc4ccccc4s3)c(=O)[nH]2)cc(C)n1

>  <Standard Type>  (28) 
IC50

>  <Standard Relation>  (28) 
'='

>  <Standard Units>  (28) 
nM

>  <Standard Value>  (28) 
73.0

>  <Assay ChEMBL ID>  (28) 
CHEMBL3887893

>  <Assay Description>  (28) 
IMAP technology (Molecular Devices): A 20 ul reaction mixture contains 10 mM TriHCl, pH 7.2, 0.5 nM GST tagged IRAK4 (SignalChem), 100 nM fluorescent peptide substrate (RP7030, Molecular Devices), 100 uM ATP, 1 mM DTT, 1 mM MgCl2, and 0.01% Tween 20. The reaction is initiated by the addition of ATP. After incubation for 30 minutes at 25° C., 60 ul of Progressive IMAP Reagent (Molecular Devices) is added to stop the reaction. Change in RP7030's FP is determined by a FP reader (Analyst HT, LJL BioSystems).

>  <BAO Format ID>  (28) 
BAO_0000357

>  <BAO Label>  (28) 
single protein format

>  <Assay Organism>  (28) 
Homo sapiens

>  <Target ChEMBL ID>  (28) 
CHEMBL3778

>  <Target Name>  (28) 
Interleukin-1 receptor-associated kinase 4

>  <Target Organism>  (28) 
Homo sapiens

>  <Target Type>  (28) 
SINGLE PROTEIN

>  <Document ChEMBL ID>  (28) 
CHEMBL3886492

>  <Source Description>  (28) 
BindingDB Database

>  <Document Journal>  (28) 
nan

>  <Document Year>  (28) 
2015.0

>  <Active>  (28) 
1.0

>  <bits>  (28) 
<rdkit.DataStructs.cDataStructs.ExplicitBitVect object at 0x000001D1B3CFC4A0>

>  <Group>  (28) 
G1

$$$$

     RDKit          2D

 36 40  0  0  0  0  0  0  0  0999 V2000
    2.7101   18.3567    0.0000 C   0  0  0  0  0  0  0  0  0  0  0  0
    2.3983   16.8894    0.0000 N   0  0  0  0  0  0  0  0  0  0  0  0
    0.9717   16.4259    0.0000 C   0  0  0  0  0  0  0  0  0  0  0  0
   -0.1430   17.4296    0.0000 O   0  0  0  0  0  0  0  0  0  0  0  0
    0.6598   14.9587    0.0000 C   0  0  0  0  0  0  0  0  0  0  0  0
    1.7745   13.9550    0.0000 C   0  0  0  0  0  0  0  0  0  0  0  0
    1.4627   12.4878    0.0000 C   0  0  0  0  0  0  0  0  0  0  0  0
    0.0361   12.0242    0.0000 C   0  0  0  0  0  0  0  0  0  0  0  0
   -0.2758   10.5570    0.0000 N   0  0  0  0  0  0  0  0  0  0  0  0
   -1.7024   10.0935    0.0000 C   0  0  0  0  0  0  0  0  0  0  0  0
   -2.8171   11.0972    0.0000 O   0  0  0  0  0  0  0  0  0  0  0  0
   -2.0143    8.6263    0.0000 C   0  0  0  0  0  0  0  0  0  0  0  0
   -3.4408    8.1628    0.0000 C   0  0  0  0  0  0  0  0  0  0  0  0
   -3.7527    6.6955    0.0000 N   0  0  0  0  0  0  0  0  0  0  0  0
   -2.6380    5.6918    0.0000 C   0  0  0  0  0  0  0  0  0  0  0  0
   -2.9499    4.2246    0.0000 N   0  0  0  0  0  0  0  0  0  0  0  0
   -1.8351    3.2209    0.0000 C   0  0  0  0  0  0  0  0  0  0  0  0
   -0.4086    3.6844    0.0000 C   0  0  0  0  0  0  0  0  0  0  0  0
    0.7062    2.6807    0.0000 C   0  0  0  0  0  0  0  0  0  0  0  0
    0.3943    1.2135    0.0000 C   0  0  0  0  0  0  0  0  0  0  0  0
    1.2760    0.0000    0.0000 N   0  0  0  0  0  0  0  0  0  0  0  0
    0.3943   -1.2135    0.0000 C   0  0  0  0  0  0  0  0  0  0  0  0
   -1.0323   -0.7500    0.0000 S   0  0  0  0  0  0  0  0  0  0  0  0
   -1.0323    0.7500    0.0000 C   0  0  0  0  0  0  0  0  0  0  0  0
   -2.1470    1.7537    0.0000 N   0  0  0  0  0  0  0  0  0  0  0  0
   -1.2114    6.1554    0.0000 C   0  0  0  0  0  0  0  0  0  0  0  0
   -0.8995    7.6226    0.0000 C   0  0  0  0  0  0  0  0  0  0  0  0
    0.5271    8.0861    0.0000 N   0  0  0  0  0  0  0  0  0  0  0  0
    1.6418    7.0824    0.0000 C   0  0  0  0  0  0  0  0  0  0  0  0
    1.3299    5.6152    0.0000 C   0  0  0  0  0  0  0  0  0  0  0  0
    2.4446    4.6115    0.0000 C   0  0  0  0  0  0  0  0  0  0  0  0
    3.8712    5.0750    0.0000 O   0  0  0  0  0  0  0  0  0  0  0  0
    4.1831    6.5422    0.0000 C   0  0  0  0  0  0  0  0  0  0  0  0
    3.0684    7.5459    0.0000 C   0  0  0  0  0  0  0  0  0  0  0  0
   -1.0786   13.0279    0.0000 C   0  0  0  0  0  0  0  0  0  0  0  0
   -0.7668   14.4952    0.0000 C   0  0  0  0  0  0  0  0  0  0  0  0
  1  2  1  0
  2  3  1  0
  3  4  2  0
  5  3  1  1
  5  6  1  0
  6  7  1  0
  7  8  1  0
  8  9  1  6
  9 10  1  0
 10 11  2  0
 10 12  1  0
 12 13  2  0
 13 14  1  0
 14 15  2  0
 15 16  1  0
 16 17  1  0
 17 18  2  0
 18 19  1  0
 19 20  2  0
 20 21  1  0
 21 22  2  0
 22 23  1  0
 23 24  1  0
 24 25  2  0
 15 26  1  0
 26 27  2  0
 27 28  1  0
 28 29  1  0
 29 30  1  0
 30 31  1  0
 31 32  1  0
 32 33  1  0
 33 34  1  0
  8 35  1  0
 35 36  1  0
 36  5  1  0
 27 12  1  0
 34 29  1  0
 25 17  1  0
 24 20  1  0
M  END
>  <Compound_ID>  (29) 
CHEMBL3353195

>  <Molecule Name>  (29) 
nan

>  <Molecular Weight>  (29) 
509.64

>  <AlogP>  (29) 
3.46

>  <Smiles>  (29) 
CNC(=O)[C@H]1CC[C@H](NC(=O)c2cnc(Nc3ccc4ncsc4n3)cc2NC2CCOCC2)CC1

>  <Standard Type>  (29) 
IC50

>  <Standard Relation>  (29) 
'='

>  <Standard Units>  (29) 
nM

>  <Standard Value>  (29) 
1.5

>  <Assay ChEMBL ID>  (29) 
CHEMBL3380182

>  <Assay Description>  (29) 
Inhibition of IRAK4 (unknown origin) using fluoresceinated peptide and ATP after 60 mins by by Caliper assay

>  <BAO Format ID>  (29) 
BAO_0000357

>  <BAO Label>  (29) 
single protein format

>  <Assay Organism>  (29) 
Homo sapiens

>  <Target ChEMBL ID>  (29) 
CHEMBL3778

>  <Target Name>  (29) 
Interleukin-1 receptor-associated kinase 4

>  <Target Organism>  (29) 
Homo sapiens

>  <Target Type>  (29) 
SINGLE PROTEIN

>  <Document ChEMBL ID>  (29) 
CHEMBL3351266

>  <Source Description>  (29) 
Scientific Literature

>  <Document Journal>  (29) 
J Med Chem

>  <Document Year>  (29) 
2015.0

>  <Active>  (29) 
1.0

>  <bits>  (29) 
<rdkit.DataStructs.cDataStructs.ExplicitBitVect object at 0x000001D1B3CFC510>

>  <Group>  (29) 
G1

$$$$

     RDKit          2D

 29 31  0  0  0  0  0  0  0  0999 V2000
    3.0684    7.5459    0.0000 C   0  0  0  0  0  0  0  0  0  0  0  0
    1.6418    7.0824    0.0000 C   0  0  0  0  0  0  0  0  0  0  0  0
    1.3299    5.6152    0.0000 C   0  0  0  0  0  0  0  0  0  0  0  0
    0.5271    8.0861    0.0000 N   0  0  0  0  0  0  0  0  0  0  0  0
   -0.8995    7.6226    0.0000 C   0  0  0  0  0  0  0  0  0  0  0  0
   -1.2114    6.1554    0.0000 C   0  0  0  0  0  0  0  0  0  0  0  0
   -2.6380    5.6918    0.0000 C   0  0  0  0  0  0  0  0  0  0  0  0
   -2.9499    4.2246    0.0000 N   0  0  0  0  0  0  0  0  0  0  0  0
   -1.8351    3.2209    0.0000 C   0  0  0  0  0  0  0  0  0  0  0  0
   -0.4086    3.6844    0.0000 C   0  0  0  0  0  0  0  0  0  0  0  0
    0.7062    2.6807    0.0000 C   0  0  0  0  0  0  0  0  0  0  0  0
    0.3943    1.2135    0.0000 C   0  0  0  0  0  0  0  0  0  0  0  0
    1.2760    0.0000    0.0000 N   0  0  0  0  0  0  0  0  0  0  0  0
    0.3943   -1.2135    0.0000 C   0  0  0  0  0  0  0  0  0  0  0  0
   -1.0323   -0.7500    0.0000 S   0  0  0  0  0  0  0  0  0  0  0  0
   -1.0323    0.7500    0.0000 C   0  0  0  0  0  0  0  0  0  0  0  0
   -2.1470    1.7537    0.0000 C   0  0  0  0  0  0  0  0  0  0  0  0
   -3.7527    6.6955    0.0000 N   0  0  0  0  0  0  0  0  0  0  0  0
   -3.4408    8.1628    0.0000 C   0  0  0  0  0  0  0  0  0  0  0  0
   -2.0143    8.6263    0.0000 C   0  0  0  0  0  0  0  0  0  0  0  0
   -1.7024   10.0935    0.0000 C   0  0  0  0  0  0  0  0  0  0  0  0
   -0.2758   10.5570    0.0000 O   0  0  0  0  0  0  0  0  0  0  0  0
   -2.8171   11.0972    0.0000 N   0  0  0  0  0  0  0  0  0  0  0  0
   -2.5052   12.5644    0.0000 C   0  0  0  0  0  0  0  0  0  0  0  0
   -3.6200   13.5681    0.0000 C   0  0  0  0  0  0  0  0  0  0  0  0
   -3.3081   15.0353    0.0000 C   0  0  0  0  0  0  0  0  0  0  0  0
   -1.8409   14.7235    0.0000 C   0  0  0  0  0  0  0  0  0  0  0  0
   -4.7753   15.3472    0.0000 C   0  0  0  0  0  0  0  0  0  0  0  0
   -2.9962   16.5026    0.0000 O   0  0  0  0  0  0  0  0  0  0  0  0
  1  2  1  0
  2  3  1  0
  2  4  1  0
  4  5  1  0
  5  6  2  0
  6  7  1  0
  7  8  1  0
  8  9  1  0
  9 10  2  0
 10 11  1  0
 11 12  2  0
 12 13  1  0
 13 14  2  0
 14 15  1  0
 15 16  1  0
 16 17  2  0
  7 18  2  0
 18 19  1  0
 19 20  2  0
 20 21  1  0
 21 22  2  0
 21 23  1  0
 23 24  1  0
 24 25  1  0
 25 26  1  0
 26 27  1  0
 26 28  1  0
 26 29  1  0
 20  5  1  0
 17  9  1  0
 16 12  1  0
M  END
>  <Compound_ID>  (30) 
CHEMBL4649875

>  <Molecule Name>  (30) 
nan

>  <Molecular Weight>  (30) 
413.55

>  <AlogP>  (30) 
4.15

>  <Smiles>  (30) 
CC(C)Nc1cc(Nc2ccc3ncsc3c2)ncc1C(=O)NCCC(C)(C)O

>  <Standard Type>  (30) 
IC50

>  <Standard Relation>  (30) 
'='

>  <Standard Units>  (30) 
nM

>  <Standard Value>  (30) 
4.1

>  <Assay ChEMBL ID>  (30) 
CHEMBL4625630

>  <Assay Description>  (30) 
Inhibition of IRAK4 (unknown origin) using FL-IPTSPITTTYFFFKKK peptide and ATP as substrate incubated for 60 mins by fluorescence based caliper assay

>  <BAO Format ID>  (30) 
BAO_0000357

>  <BAO Label>  (30) 
single protein format

>  <Assay Organism>  (30) 
Homo sapiens

>  <Target ChEMBL ID>  (30) 
CHEMBL3778

>  <Target Name>  (30) 
Interleukin-1 receptor-associated kinase 4

>  <Target Organism>  (30) 
Homo sapiens

>  <Target Type>  (30) 
SINGLE PROTEIN

>  <Document ChEMBL ID>  (30) 
CHEMBL4622963

>  <Source Description>  (30) 
Scientific Literature

>  <Document Journal>  (30) 
ACS Med Chem Lett

>  <Document Year>  (30) 
2020.0

>  <Active>  (30) 
1.0

>  <bits>  (30) 
<rdkit.DataStructs.cDataStructs.ExplicitBitVect object at 0x000001D1B3CFC580>

>  <Group>  (30) 
G1

$$$$

     RDKit          2D

 31 35  0  0  0  0  0  0  0  0999 V2000
   -7.5097   -4.6876    0.0000 N   0  0  0  0  0  0  0  0  0  0  0  0
   -6.3949   -3.6839    0.0000 C   0  0  0  0  0  0  0  0  0  0  0  0
   -6.7068   -2.2167    0.0000 O   0  0  0  0  0  0  0  0  0  0  0  0
   -4.9684   -4.1475    0.0000 C   0  0  0  0  0  0  0  0  0  0  0  0
   -4.6565   -5.6147    0.0000 O   0  0  0  0  0  0  0  0  0  0  0  0
   -3.8536   -3.1438    0.0000 C   0  0  0  0  0  0  0  0  0  0  0  0
   -2.4271   -3.6073    0.0000 C   0  0  0  0  0  0  0  0  0  0  0  0
   -1.9635   -5.0339    0.0000 C   0  0  0  0  0  0  0  0  0  0  0  0
   -0.4635   -5.0339    0.0000 C   0  0  0  0  0  0  0  0  0  0  0  0
   -0.0000   -3.6073    0.0000 C   0  0  0  0  0  0  0  0  0  0  0  0
    1.2135   -2.7256    0.0000 S   0  0  0  0  0  0  0  0  0  0  0  0
    0.7500   -1.2990    0.0000 C   0  0  0  0  0  0  0  0  0  0  0  0
    1.5000    0.0000    0.0000 N   0  0  0  0  0  0  0  0  0  0  0  0
    0.7500    1.2990    0.0000 C   0  0  0  0  0  0  0  0  0  0  0  0
   -0.7500    1.2990    0.0000 N   0  0  0  0  0  0  0  0  0  0  0  0
   -1.5000    0.0000    0.0000 C   0  0  0  0  0  0  0  0  0  0  0  0
   -3.0000    0.0000    0.0000 O   0  0  0  0  0  0  0  0  0  0  0  0
   -3.7500    1.2990    0.0000 C   0  0  0  0  0  0  0  0  0  0  0  0
   -3.0000    2.5981    0.0000 C   0  0  0  0  0  0  0  0  0  0  0  0
   -3.7500    3.8971    0.0000 C   0  0  0  0  0  0  0  0  0  0  0  0
   -5.2500    3.8971    0.0000 C   0  0  0  0  0  0  0  0  0  0  0  0
   -6.0000    5.1962    0.0000 N   0  0  0  0  0  0  0  0  0  0  0  0
   -5.2500    6.4952    0.0000 C   0  0  0  0  0  0  0  0  0  0  0  0
   -6.0000    7.7942    0.0000 C   0  0  0  0  0  0  0  0  0  0  0  0
   -7.5000    7.7942    0.0000 O   0  0  0  0  0  0  0  0  0  0  0  0
   -8.2500    6.4952    0.0000 C   0  0  0  0  0  0  0  0  0  0  0  0
   -7.5000    5.1962    0.0000 C   0  0  0  0  0  0  0  0  0  0  0  0
   -6.0000    2.5981    0.0000 C   0  0  0  0  0  0  0  0  0  0  0  0
   -5.2500    1.2990    0.0000 C   0  0  0  0  0  0  0  0  0  0  0  0
   -0.7500   -1.2990    0.0000 C   0  0  0  0  0  0  0  0  0  0  0  0
   -1.2135   -2.7256    0.0000 C   0  0  0  0  0  0  0  0  0  0  0  0
  1  2  1  0
  2  3  2  0
  2  4  1  0
  4  5  1  6
  4  6  1  0
  7  6  1  6
  7  8  1  0
  8  9  1  0
  9 10  1  0
 10 11  1  0
 11 12  1  0
 12 13  2  0
 13 14  1  0
 14 15  2  0
 15 16  1  0
 16 17  1  0
 18 17  1  6
 18 19  1  0
 19 20  1  0
 20 21  1  0
 21 22  1  1
 22 23  1  0
 23 24  1  0
 24 25  1  0
 25 26  1  0
 26 27  1  0
 21 28  1  0
 28 29  1  0
 16 30  2  0
 30 31  1  0
 31  7  1  0
 31 10  2  0
 30 12  1  0
 29 18  1  0
 27 22  1  0
M  END
>  <Compound_ID>  (31) 
CHEMBL3361255

>  <Molecule Name>  (31) 
nan

>  <Molecular Weight>  (31) 
446.57

>  <AlogP>  (31) 
1.98

>  <Smiles>  (31) 
NC(=O)[C@@H](O)C[C@H]1CCc2sc3ncnc(O[C@H]4CC[C@H](N5CCOCC5)CC4)c3c21

>  <Standard Type>  (31) 
IC50

>  <Standard Relation>  (31) 
'='

>  <Standard Units>  (31) 
nM

>  <Standard Value>  (31) 
1.3

>  <Assay ChEMBL ID>  (31) 
CHEMBL4331758

>  <Assay Description>  (31) 
Inhibition of IRAK4 (unknown origin)

>  <BAO Format ID>  (31) 
BAO_0000357

>  <BAO Label>  (31) 
single protein format

>  <Assay Organism>  (31) 
Homo sapiens

>  <Target ChEMBL ID>  (31) 
CHEMBL3778

>  <Target Name>  (31) 
Interleukin-1 receptor-associated kinase 4

>  <Target Organism>  (31) 
Homo sapiens

>  <Target Type>  (31) 
SINGLE PROTEIN

>  <Document ChEMBL ID>  (31) 
CHEMBL4330088

>  <Source Description>  (31) 
Scientific Literature

>  <Document Journal>  (31) 
Eur J Med Chem

>  <Document Year>  (31) 
2019.0

>  <Active>  (31) 
1.0

>  <bits>  (31) 
<rdkit.DataStructs.cDataStructs.ExplicitBitVect object at 0x000001D1B3CFC5F0>

>  <Group>  (31) 
G1

$$$$

     RDKit          2D

 37 41  0  0  0  0  0  0  0  0999 V2000
   -7.0990    0.8256    0.0000 C   0  0  0  0  0  0  0  0  0  0  0  0
   -5.9843   -0.1781    0.0000 C   0  0  0  0  0  0  0  0  0  0  0  0
   -4.5577    0.2855    0.0000 C   0  0  0  0  0  0  0  0  0  0  0  0
   -6.2961   -1.6453    0.0000 N   0  0  0  0  0  0  0  0  0  0  0  0
   -5.1814   -2.6490    0.0000 C   0  0  0  0  0  0  0  0  0  0  0  0
   -3.7548   -2.1855    0.0000 C   0  0  0  0  0  0  0  0  0  0  0  0
   -2.6401   -3.1891    0.0000 C   0  0  0  0  0  0  0  0  0  0  0  0
   -1.2135   -2.7256    0.0000 N   0  0  0  0  0  0  0  0  0  0  0  0
   -0.0000   -3.6073    0.0000 C   0  0  0  0  0  0  0  0  0  0  0  0
    1.2135   -2.7256    0.0000 C   0  0  0  0  0  0  0  0  0  0  0  0
    0.7500   -1.2990    0.0000 C   0  0  0  0  0  0  0  0  0  0  0  0
    1.5000    0.0000    0.0000 C   0  0  0  0  0  0  0  0  0  0  0  0
    0.7500    1.2990    0.0000 C   0  0  0  0  0  0  0  0  0  0  0  0
    1.5000    2.5981    0.0000 C   0  0  0  0  0  0  0  0  0  0  0  0
    2.2500    3.8971    0.0000 N   0  0  0  0  0  0  0  0  0  0  0  0
   -0.7500    1.2990    0.0000 C   0  0  0  0  0  0  0  0  0  0  0  0
   -1.5000    0.0000    0.0000 N   0  0  0  0  0  0  0  0  0  0  0  0
   -0.7500   -1.2990    0.0000 C   0  0  0  0  0  0  0  0  0  0  0  0
   -2.9520   -4.6564    0.0000 N   0  0  0  0  0  0  0  0  0  0  0  0
   -4.3786   -5.1199    0.0000 C   0  0  0  0  0  0  0  0  0  0  0  0
   -5.4933   -4.1162    0.0000 C   0  0  0  0  0  0  0  0  0  0  0  0
   -6.9199   -4.5797    0.0000 C   0  0  0  0  0  0  0  0  0  0  0  0
   -8.0346   -3.5760    0.0000 O   0  0  0  0  0  0  0  0  0  0  0  0
   -7.2317   -6.0469    0.0000 N   0  0  0  0  0  0  0  0  0  0  0  0
   -8.6583   -6.5105    0.0000 C   0  0  0  0  0  0  0  0  0  0  0  0
   -9.7730   -5.5068    0.0000 C   0  0  0  0  0  0  0  0  0  0  0  0
  -11.1996   -5.9703    0.0000 C   0  0  0  0  0  0  0  0  0  0  0  0
  -11.5115   -7.4375    0.0000 C   0  0  0  0  0  0  0  0  0  0  0  0
  -12.9023   -6.8756    0.0000 O   0  0  0  0  0  0  0  0  0  0  0  0
  -12.3064   -8.7096    0.0000 C   0  0  0  0  0  0  0  0  0  0  0  0
  -11.7445  -10.1004    0.0000 C   0  0  0  0  0  0  0  0  0  0  0  0
  -12.8935  -11.0646    0.0000 C   0  0  0  0  0  0  0  0  0  0  0  0
  -14.1656  -10.2697    0.0000 N   0  0  0  0  0  0  0  0  0  0  0  0
  -13.8027   -8.8142    0.0000 N   0  0  0  0  0  0  0  0  0  0  0  0
  -14.7669   -7.6652    0.0000 C   0  0  0  0  0  0  0  0  0  0  0  0
  -10.3968   -8.4412    0.0000 C   0  0  0  0  0  0  0  0  0  0  0  0
   -8.9702   -7.9777    0.0000 C   0  0  0  0  0  0  0  0  0  0  0  0
  1  2  1  0
  2  3  1  0
  2  4  1  0
  4  5  1  0
  5  6  2  0
  6  7  1  0
  7  8  1  0
  8  9  1  0
  9 10  2  0
 10 11  1  0
 11 12  2  0
 12 13  1  0
 13 14  1  0
 14 15  3  0
 13 16  2  0
 16 17  1  0
 17 18  2  0
  7 19  2  0
 19 20  1  0
 20 21  2  0
 21 22  1  0
 22 23  2  0
 22 24  1  0
 25 24  1  6
 25 26  1  0
 26 27  1  0
 27 28  1  0
 28 29  1  6
 28 30  1  0
 30 31  2  0
 31 32  1  0
 32 33  2  0
 33 34  1  0
 34 35  1  0
 28 36  1  0
 36 37  1  0
 21  5  1  0
 37 25  1  0
 18  8  1  0
 34 30  1  0
 18 11  1  0
M  END
>  <Compound_ID>  (32) 
CHEMBL3940719

>  <Molecule Name>  (32) 
nan

>  <Molecular Weight>  (32) 
498.59

>  <AlogP>  (32) 
3.41

>  <Smiles>  (32) 
CC(C)Nc1cc(-n2ccc3cc(C#N)cnc32)ncc1C(=O)N[C@H]1CC[C@](O)(c2ccnn2C)CC1

>  <Standard Type>  (32) 
IC50

>  <Standard Relation>  (32) 
'='

>  <Standard Units>  (32) 
nM

>  <Standard Value>  (32) 
2.3

>  <Assay ChEMBL ID>  (32) 
CHEMBL3887118

>  <Assay Description>  (32) 
Inhibition Assay: The assays were performed in U-bottom 384-well plates. The final assay volume was 30 L prepared from 15 L additions of enzyme and substrates (fluoresceinated peptide and ATP) and test compounds in assay buffer (20 mM HEPES pH 7.2, 10 mM MgCl2, 0.015% Brij 35 and 4 mM DTT). The reaction was initiated by the combination of IRAK4 with substrates and test compounds. The reaction mixture was incubated at room temperature for 60 min. and terminated by adding 45 μL of 35 mM EDTA to each sample. The reaction mixture was analyzed on the Caliper LABCHIP® 3000 (Caliper, Hopkinton, Mass.) by electrophoretic separation of the fluorescent substrate and phosphorylated product. Inhibition data were calculated by comparison to no enzyme control reactions for 100% inhibition and vehicle-only reactions for 0% inhibition. The final concentrations of reagents in the assays are ATP, 500 μM; FL-IPTSPITTTYFFFKKK peptide 1.5 μM; IRAK4, 0.6 nM; and DMSO, 1.6%.

>  <BAO Format ID>  (32) 
BAO_0000357

>  <BAO Label>  (32) 
single protein format

>  <Assay Organism>  (32) 
Homo sapiens

>  <Target ChEMBL ID>  (32) 
CHEMBL3778

>  <Target Name>  (32) 
Interleukin-1 receptor-associated kinase 4

>  <Target Organism>  (32) 
Homo sapiens

>  <Target Type>  (32) 
SINGLE PROTEIN

>  <Document ChEMBL ID>  (32) 
CHEMBL3886172

>  <Source Description>  (32) 
BindingDB Database

>  <Document Journal>  (32) 
nan

>  <Document Year>  (32) 
2015.0

>  <Active>  (32) 
1.0

>  <bits>  (32) 
<rdkit.DataStructs.cDataStructs.ExplicitBitVect object at 0x000001D1B3CFC660>

>  <Group>  (32) 
G1

$$$$

     RDKit          2D

 23 25  0  0  0  0  0  0  0  0999 V2000
    3.7500   -1.2990    0.0000 C   0  0  0  0  0  0  0  0  0  0  0  0
    3.0000    0.0000    0.0000 O   0  0  0  0  0  0  0  0  0  0  0  0
    1.5000    0.0000    0.0000 C   0  0  0  0  0  0  0  0  0  0  0  0
    0.7500   -1.2990    0.0000 C   0  0  0  0  0  0  0  0  0  0  0  0
   -0.7500   -1.2990    0.0000 C   0  0  0  0  0  0  0  0  0  0  0  0
   -1.5000    0.0000    0.0000 C   0  0  0  0  0  0  0  0  0  0  0  0
   -3.0000    0.0000    0.0000 N   0  0  0  0  0  0  0  0  0  0  0  0
   -3.7500    1.2990    0.0000 C   0  0  0  0  0  0  0  0  0  0  0  0
   -5.2418    1.4558    0.0000 N   0  0  0  0  0  0  0  0  0  0  0  0
   -5.5537    2.9231    0.0000 C   0  0  0  0  0  0  0  0  0  0  0  0
   -6.9240    3.5332    0.0000 N   0  0  0  0  0  0  0  0  0  0  0  0
   -4.2546    3.6731    0.0000 N   0  0  0  0  0  0  0  0  0  0  0  0
   -4.0978    5.1648    0.0000 C   0  0  0  0  0  0  0  0  0  0  0  0
   -2.7275    5.7749    0.0000 C   0  0  0  0  0  0  0  0  0  0  0  0
   -2.5707    7.2667    0.0000 C   0  0  0  0  0  0  0  0  0  0  0  0
   -3.7842    8.1484    0.0000 C   0  0  0  0  0  0  0  0  0  0  0  0
   -5.1546    7.5383    0.0000 C   0  0  0  0  0  0  0  0  0  0  0  0
   -5.3113    6.0465    0.0000 N   0  0  0  0  0  0  0  0  0  0  0  0
   -3.1399    2.6694    0.0000 N   0  0  0  0  0  0  0  0  0  0  0  0
   -0.7500    1.2990    0.0000 C   0  0  0  0  0  0  0  0  0  0  0  0
    0.7500    1.2990    0.0000 C   0  0  0  0  0  0  0  0  0  0  0  0
    1.5000    2.5981    0.0000 O   0  0  0  0  0  0  0  0  0  0  0  0
    0.7500    3.8971    0.0000 C   0  0  0  0  0  0  0  0  0  0  0  0
  1  2  1  0
  2  3  1  0
  3  4  2  0
  4  5  1  0
  5  6  2  0
  6  7  1  0
  7  8  1  0
  8  9  1  0
  9 10  2  0
 10 11  1  0
 10 12  1  0
 12 13  1  0
 13 14  2  0
 14 15  1  0
 15 16  2  0
 16 17  1  0
 17 18  2  0
 12 19  1  0
  6 20  1  0
 20 21  2  0
 21 22  1  0
 22 23  1  0
 21  3  1  0
 19  8  2  0
 18 13  1  0
M  END
>  <Compound_ID>  (33) 
CHEMBL1835740

>  <Molecule Name>  (33) 
nan

>  <Molecular Weight>  (33) 
312.33

>  <AlogP>  (33) 
2.01

>  <Smiles>  (33) 
COc1ccc(Nc2nc(N)n(-c3ccccn3)n2)cc1OC

>  <Standard Type>  (33) 
Ki

>  <Standard Relation>  (33) 
'='

>  <Standard Units>  (33) 
nM

>  <Standard Value>  (33) 
43.0

>  <Assay ChEMBL ID>  (33) 
CHEMBL1840412

>  <Assay Description>  (33) 
Inhibition of IRAK4 by spectrophotometry

>  <BAO Format ID>  (33) 
BAO_0000357

>  <BAO Label>  (33) 
single protein format

>  <Assay Organism>  (33) 
None

>  <Target ChEMBL ID>  (33) 
CHEMBL3778

>  <Target Name>  (33) 
Interleukin-1 receptor-associated kinase 4

>  <Target Organism>  (33) 
Homo sapiens

>  <Target Type>  (33) 
SINGLE PROTEIN

>  <Document ChEMBL ID>  (33) 
CHEMBL1833953

>  <Source Description>  (33) 
Scientific Literature

>  <Document Journal>  (33) 
J Med Chem

>  <Document Year>  (33) 
2011.0

>  <Active>  (33) 
1.0

>  <bits>  (33) 
<rdkit.DataStructs.cDataStructs.ExplicitBitVect object at 0x000001D1B3CFC6D0>

>  <Group>  (33) 
G1

$$$$

     RDKit          2D

 36 40  0  0  0  0  0  0  0  0999 V2000
  -10.5000  -12.9904    0.0000 C   0  0  0  0  0  0  0  0  0  0  0  0
   -9.7500  -11.6913    0.0000 O   0  0  0  0  0  0  0  0  0  0  0  0
   -8.2500  -11.6913    0.0000 C   0  0  0  0  0  0  0  0  0  0  0  0
   -7.5000  -12.9904    0.0000 O   0  0  0  0  0  0  0  0  0  0  0  0
   -7.5000  -10.3923    0.0000 N   0  0  0  0  0  0  0  0  0  0  0  0
   -8.2500   -9.0933    0.0000 C   0  0  0  0  0  0  0  0  0  0  0  0
   -7.5000   -7.7942    0.0000 C   0  0  0  0  0  0  0  0  0  0  0  0
   -6.0000   -7.7942    0.0000 N   0  0  0  0  0  0  0  0  0  0  0  0
   -5.2500   -6.4952    0.0000 C   0  0  0  0  0  0  0  0  0  0  0  0
   -3.7500   -6.4952    0.0000 C   0  0  0  0  0  0  0  0  0  0  0  0
   -3.0000   -5.1962    0.0000 C   0  0  0  0  0  0  0  0  0  0  0  0
   -3.7500   -3.8971    0.0000 C   0  0  0  0  0  0  0  0  0  0  0  0
   -3.0000   -2.5981    0.0000 N   0  0  0  0  0  0  0  0  0  0  0  0
   -1.5000   -2.5981    0.0000 C   0  0  0  0  0  0  0  0  0  0  0  0
   -0.7500   -3.8971    0.0000 N   0  0  0  0  0  0  0  0  0  0  0  0
    0.7500   -3.8971    0.0000 C   0  0  0  0  0  0  0  0  0  0  0  0
    1.5000   -5.1962    0.0000 N   0  0  0  0  0  0  0  0  0  0  0  0
    0.7500   -6.4952    0.0000 C   0  0  0  0  0  0  0  0  0  0  0  0
    1.3601   -7.8655    0.0000 C   0  0  0  0  0  0  0  0  0  0  0  0
    0.2454   -8.8692    0.0000 N   0  0  0  0  0  0  0  0  0  0  0  0
   -1.0537   -8.1192    0.0000 N   0  0  0  0  0  0  0  0  0  0  0  0
   -2.4240   -8.7293    0.0000 C   0  0  0  0  0  0  0  0  0  0  0  0
   -0.7418   -6.6520    0.0000 C   0  0  0  0  0  0  0  0  0  0  0  0
    1.5000   -2.5981    0.0000 N   0  0  0  0  0  0  0  0  0  0  0  0
    0.7500   -1.2990    0.0000 C   0  0  0  0  0  0  0  0  0  0  0  0
    1.5000    0.0000    0.0000 C   0  0  0  0  0  0  0  0  0  0  0  0
    0.7500    1.2990    0.0000 C   0  0  0  0  0  0  0  0  0  0  0  0
   -0.7500    1.2990    0.0000 C   0  0  0  0  0  0  0  0  0  0  0  0
   -1.5000    2.5981    0.0000 C   0  0  0  0  0  0  0  0  0  0  0  0
   -2.2500    3.8971    0.0000 N   0  0  0  0  0  0  0  0  0  0  0  0
   -1.5000    0.0000    0.0000 N   0  0  0  0  0  0  0  0  0  0  0  0
   -0.7500   -1.2990    0.0000 C   0  0  0  0  0  0  0  0  0  0  0  0
   -5.2500   -3.8971    0.0000 C   0  0  0  0  0  0  0  0  0  0  0  0
   -6.0000   -5.1962    0.0000 C   0  0  0  0  0  0  0  0  0  0  0  0
   -5.2500   -9.0933    0.0000 C   0  0  0  0  0  0  0  0  0  0  0  0
   -6.0000  -10.3923    0.0000 C   0  0  0  0  0  0  0  0  0  0  0  0
  1  2  1  0
  2  3  1  0
  3  4  2  0
  3  5  1  0
  5  6  1  0
  6  7  1  0
  7  8  1  0
  9  8  1  6
  9 10  1  0
 10 11  1  0
 11 12  1  0
 12 13  1  1
 13 14  1  0
 14 15  2  0
 15 16  1  0
 16 17  1  0
 17 18  1  0
 18 19  1  0
 19 20  2  0
 20 21  1  0
 21 22  1  0
 21 23  1  0
 16 24  2  0
 24 25  1  0
 25 26  2  0
 26 27  1  0
 27 28  2  0
 28 29  1  0
 29 30  3  0
 28 31  1  0
 31 32  2  0
 12 33  1  0
 33 34  1  0
  8 35  1  0
 35 36  1  0
 36  5  1  0
 34  9  1  0
 32 14  1  0
 23 18  2  0
 32 25  1  0
M  END
>  <Compound_ID>  (34) 
CHEMBL4556866

>  <Molecule Name>  (34) 
nan

>  <Molecular Weight>  (34) 
490.57

>  <AlogP>  (34) 
2.48

>  <Smiles>  (34) 
COC(=O)N1CCN([C@H]2CC[C@H](Nc3nc(Nc4cnn(C)c4)nc4ccc(C#N)nc34)CC2)CC1

>  <Standard Type>  (34) 
IC50

>  <Standard Relation>  (34) 
'='

>  <Standard Units>  (34) 
nM

>  <Standard Value>  (34) 
5.0

>  <Assay ChEMBL ID>  (34) 
CHEMBL4323523

>  <Assay Description>  (34) 
Inhibition of IRAK4 (unknown origin) in presence of 5 mM ATP by enzymatic assay

>  <BAO Format ID>  (34) 
BAO_0000357

>  <BAO Label>  (34) 
single protein format

>  <Assay Organism>  (34) 
Homo sapiens

>  <Target ChEMBL ID>  (34) 
CHEMBL3778

>  <Target Name>  (34) 
Interleukin-1 receptor-associated kinase 4

>  <Target Organism>  (34) 
Homo sapiens

>  <Target Type>  (34) 
SINGLE PROTEIN

>  <Document ChEMBL ID>  (34) 
CHEMBL4321825

>  <Source Description>  (34) 
Scientific Literature

>  <Document Journal>  (34) 
J Med Chem

>  <Document Year>  (34) 
2019.0

>  <Active>  (34) 
1.0

>  <bits>  (34) 
<rdkit.DataStructs.cDataStructs.ExplicitBitVect object at 0x000001D1B3CFC740>

>  <Group>  (34) 
G1

$$$$

     RDKit          2D

 23 26  0  0  0  0  0  0  0  0999 V2000
    3.0000    0.0000    0.0000 Cl  0  0  0  0  0  0  0  0  0  0  0  0
    1.5000    0.0000    0.0000 C   0  0  0  0  0  0  0  0  0  0  0  0
    0.7500   -1.2990    0.0000 C   0  0  0  0  0  0  0  0  0  0  0  0
   -0.7500   -1.2990    0.0000 C   0  0  0  0  0  0  0  0  0  0  0  0
   -1.5000    0.0000    0.0000 C   0  0  0  0  0  0  0  0  0  0  0  0
   -2.9672    0.3119    0.0000 N   0  0  0  0  0  0  0  0  0  0  0  0
   -3.1240    1.8037    0.0000 C   0  0  0  0  0  0  0  0  0  0  0  0
   -1.7537    2.4138    0.0000 C   0  0  0  0  0  0  0  0  0  0  0  0
   -1.4418    3.8810    0.0000 C   0  0  0  0  0  0  0  0  0  0  0  0
   -0.0152    4.3445    0.0000 C   0  0  0  0  0  0  0  0  0  0  0  0
    0.2966    5.8117    0.0000 C   0  0  0  0  0  0  0  0  0  0  0  0
   -0.8181    6.8154    0.0000 C   0  0  0  0  0  0  0  0  0  0  0  0
   -2.2447    6.3519    0.0000 C   0  0  0  0  0  0  0  0  0  0  0  0
   -3.3594    7.3556    0.0000 N   0  0  0  0  0  0  0  0  0  0  0  0
   -3.0475    8.8228    0.0000 C   0  0  0  0  0  0  0  0  0  0  0  0
   -1.6209    9.2863    0.0000 C   0  0  0  0  0  0  0  0  0  0  0  0
   -1.3091   10.7536    0.0000 C   0  0  0  0  0  0  0  0  0  0  0  0
   -2.4238   11.7573    0.0000 N   0  0  0  0  0  0  0  0  0  0  0  0
   -3.8504   11.2937    0.0000 C   0  0  0  0  0  0  0  0  0  0  0  0
   -4.1622    9.8265    0.0000 C   0  0  0  0  0  0  0  0  0  0  0  0
   -2.5565    4.8847    0.0000 N   0  0  0  0  0  0  0  0  0  0  0  0
   -0.7500    1.2990    0.0000 N   0  0  0  0  0  0  0  0  0  0  0  0
    0.7500    1.2990    0.0000 C   0  0  0  0  0  0  0  0  0  0  0  0
  1  2  1  0
  2  3  1  0
  3  4  2  0
  4  5  1  0
  5  6  2  0
  6  7  1  0
  7  8  2  0
  8  9  1  0
  9 10  2  0
 10 11  1  0
 11 12  2  0
 12 13  1  0
 13 14  1  0
 14 15  1  0
 15 16  1  0
 16 17  1  0
 17 18  1  0
 18 19  1  0
 19 20  1  0
 13 21  2  0
  8 22  1  0
 22 23  1  0
 23  2  2  0
 22  5  1  0
 21  9  1  0
 20 15  1  0
M  END
>  <Compound_ID>  (35) 
CHEMBL256570

>  <Molecule Name>  (35) 
nan

>  <Molecular Weight>  (35) 
327.82

>  <AlogP>  (35) 
3.21

>  <Smiles>  (35) 
Clc1ccc2ncc(-c3cccc(NC4CCNCC4)n3)n2c1

>  <Standard Type>  (35) 
IC50

>  <Standard Relation>  (35) 
'='

>  <Standard Units>  (35) 
nM

>  <Standard Value>  (35) 
1.0

>  <Assay ChEMBL ID>  (35) 
CHEMBL921622

>  <Assay Description>  (35) 
Inhibition of IRAK4

>  <BAO Format ID>  (35) 
BAO_0000357

>  <BAO Label>  (35) 
single protein format

>  <Assay Organism>  (35) 
None

>  <Target ChEMBL ID>  (35) 
CHEMBL3778

>  <Target Name>  (35) 
Interleukin-1 receptor-associated kinase 4

>  <Target Organism>  (35) 
Homo sapiens

>  <Target Type>  (35) 
SINGLE PROTEIN

>  <Document ChEMBL ID>  (35) 
CHEMBL1145577

>  <Source Description>  (35) 
Scientific Literature

>  <Document Journal>  (35) 
Bioorg Med Chem Lett

>  <Document Year>  (35) 
2008.0

>  <Active>  (35) 
1.0

>  <bits>  (35) 
<rdkit.DataStructs.cDataStructs.ExplicitBitVect object at 0x000001D1B3CFC7B0>

>  <Group>  (35) 
G1

$$$$

     RDKit          2D

 32 34  0  0  0  0  0  0  0  0999 V2000
    5.2500   -1.2990    0.0000 C   0  0  0  0  0  0  0  0  0  0  0  0
    3.7500   -1.2990    0.0000 N   0  0  0  0  0  0  0  0  0  0  0  0
    3.0000    0.0000    0.0000 C   0  0  0  0  0  0  0  0  0  0  0  0
    3.7500    1.2990    0.0000 O   0  0  0  0  0  0  0  0  0  0  0  0
    1.5000    0.0000    0.0000 C   0  0  0  0  0  0  0  0  0  0  0  0
    0.7500   -1.2990    0.0000 C   0  0  0  0  0  0  0  0  0  0  0  0
   -0.7500   -1.2990    0.0000 N   0  0  0  0  0  0  0  0  0  0  0  0
   -1.5000    0.0000    0.0000 C   0  0  0  0  0  0  0  0  0  0  0  0
   -3.0000    0.0000    0.0000 N   0  0  0  0  0  0  0  0  0  0  0  0
   -3.7500    1.2990    0.0000 C   0  0  0  0  0  0  0  0  0  0  0  0
   -3.0000    2.5981    0.0000 C   0  0  0  0  0  0  0  0  0  0  0  0
   -3.7500    3.8971    0.0000 C   0  0  0  0  0  0  0  0  0  0  0  0
   -5.2500    3.8971    0.0000 C   0  0  0  0  0  0  0  0  0  0  0  0
   -6.0000    5.1962    0.0000 O   0  0  0  0  0  0  0  0  0  0  0  0
   -5.2500    6.4952    0.0000 C   0  0  0  0  0  0  0  0  0  0  0  0
   -6.0000    2.5981    0.0000 C   0  0  0  0  0  0  0  0  0  0  0  0
   -7.5000    2.5981    0.0000 F   0  0  0  0  0  0  0  0  0  0  0  0
   -5.2500    1.2990    0.0000 C   0  0  0  0  0  0  0  0  0  0  0  0
   -0.7500    1.2990    0.0000 C   0  0  0  0  0  0  0  0  0  0  0  0
    0.7500    1.2990    0.0000 C   0  0  0  0  0  0  0  0  0  0  0  0
    1.5000    2.5981    0.0000 N   0  0  0  0  0  0  0  0  0  0  0  0
    0.7500    3.8971    0.0000 C   0  0  0  0  0  0  0  0  0  0  0  0
    1.5000    5.1962    0.0000 C   0  0  0  0  0  0  0  0  0  0  0  0
    3.0000    5.1962    0.0000 C   0  0  0  0  0  0  0  0  0  0  0  0
    3.7500    6.4952    0.0000 C   0  0  0  0  0  0  0  0  0  0  0  0
    3.0000    7.7942    0.0000 C   0  0  0  0  0  0  0  0  0  0  0  0
    1.5000    7.7942    0.0000 C   0  0  0  0  0  0  0  0  0  0  0  0
    0.7500    6.4952    0.0000 C   0  0  0  0  0  0  0  0  0  0  0  0
   -0.7500    3.8971    0.0000 C   0  0  0  0  0  0  0  0  0  0  0  0
   -1.5000    2.5981    0.0000 O   0  0  0  0  0  0  0  0  0  0  0  0
   -1.5000    5.1962    0.0000 C   0  0  0  0  0  0  0  0  0  0  0  0
   -3.0000    5.1962    0.0000 O   0  0  0  0  0  0  0  0  0  0  0  0
  1  2  1  0
  2  3  1  0
  3  4  2  0
  3  5  1  0
  5  6  2  0
  6  7  1  0
  7  8  2  0
  8  9  1  0
  9 10  1  0
 10 11  2  0
 11 12  1  0
 12 13  2  0
 13 14  1  0
 14 15  1  0
 13 16  1  0
 16 17  1  0
 16 18  2  0
  8 19  1  0
 19 20  2  0
 20 21  1  0
 22 21  1  6
 22 23  1  0
 23 24  2  0
 24 25  1  0
 25 26  2  0
 26 27  1  0
 27 28  2  0
 22 29  1  0
 29 30  1  6
 29 31  1  0
 31 32  1  0
 20  5  1  0
 28 23  1  0
 18 10  1  0
M  END
>  <Compound_ID>  (36) 
CHEMBL4095514

>  <Molecule Name>  (36) 
nan

>  <Molecular Weight>  (36) 
440.48

>  <AlogP>  (36) 
2.84

>  <Smiles>  (36) 
CNC(=O)c1cnc(Nc2ccc(OC)c(F)c2)cc1N[C@@H](c1ccccc1)[C@H](O)CO

>  <Standard Type>  (36) 
IC50

>  <Standard Relation>  (36) 
'='

>  <Standard Units>  (36) 
nM

>  <Standard Value>  (36) 
13.0

>  <Assay ChEMBL ID>  (36) 
CHEMBL4047622

>  <Assay Description>  (36) 
Inhibition of IRAK4 (unknown origin) using fluorescent labelled IPTSPITTTYFFFKKK peptide as substrate after 60 mins by caliper assay

>  <BAO Format ID>  (36) 
BAO_0000357

>  <BAO Label>  (36) 
single protein format

>  <Assay Organism>  (36) 
Homo sapiens

>  <Target ChEMBL ID>  (36) 
CHEMBL3778

>  <Target Name>  (36) 
Interleukin-1 receptor-associated kinase 4

>  <Target Organism>  (36) 
Homo sapiens

>  <Target Type>  (36) 
SINGLE PROTEIN

>  <Document ChEMBL ID>  (36) 
CHEMBL4043252

>  <Source Description>  (36) 
Scientific Literature

>  <Document Journal>  (36) 
Bioorg Med Chem Lett

>  <Document Year>  (36) 
2017.0

>  <Active>  (36) 
1.0

>  <bits>  (36) 
<rdkit.DataStructs.cDataStructs.ExplicitBitVect object at 0x000001D1B3CFC820>

>  <Group>  (36) 
G1

$$$$

     RDKit          2D

 30 32  0  0  0  0  0  0  0  0999 V2000
    5.2500   -1.2990    0.0000 C   0  0  0  0  0  0  0  0  0  0  0  0
    3.7500   -1.2990    0.0000 C   0  0  0  0  0  0  0  0  0  0  0  0
    3.0000   -2.5981    0.0000 C   0  0  0  0  0  0  0  0  0  0  0  0
    3.0000    0.0000    0.0000 N   0  0  0  0  0  0  0  0  0  0  0  0
    1.5000    0.0000    0.0000 C   0  0  0  0  0  0  0  0  0  0  0  0
    0.7500   -1.2990    0.0000 C   0  0  0  0  0  0  0  0  0  0  0  0
   -0.7500   -1.2990    0.0000 C   0  0  0  0  0  0  0  0  0  0  0  0
   -1.5000   -2.5981    0.0000 N   0  0  0  0  0  0  0  0  0  0  0  0
   -3.0000   -2.5981    0.0000 C   0  0  0  0  0  0  0  0  0  0  0  0
   -3.7500   -1.2990    0.0000 C   0  0  0  0  0  0  0  0  0  0  0  0
   -5.2500   -1.2990    0.0000 C   0  0  0  0  0  0  0  0  0  0  0  0
   -6.0000   -2.5981    0.0000 C   0  0  0  0  0  0  0  0  0  0  0  0
   -7.5000   -2.5981    0.0000 C   0  0  0  0  0  0  0  0  0  0  0  0
   -9.0000   -2.5981    0.0000 N   0  0  0  0  0  0  0  0  0  0  0  0
   -5.2500   -3.8971    0.0000 C   0  0  0  0  0  0  0  0  0  0  0  0
   -3.7500   -3.8971    0.0000 C   0  0  0  0  0  0  0  0  0  0  0  0
   -1.5000    0.0000    0.0000 N   0  0  0  0  0  0  0  0  0  0  0  0
   -0.7500    1.2990    0.0000 C   0  0  0  0  0  0  0  0  0  0  0  0
    0.7500    1.2990    0.0000 C   0  0  0  0  0  0  0  0  0  0  0  0
    1.5000    2.5981    0.0000 C   0  0  0  0  0  0  0  0  0  0  0  0
    0.8899    3.9684    0.0000 N   0  0  0  0  0  0  0  0  0  0  0  0
    2.0046    4.9721    0.0000 N   0  0  0  0  0  0  0  0  0  0  0  0
    3.3037    4.2221    0.0000 C   0  0  0  0  0  0  0  0  0  0  0  0
    4.6740    4.8322    0.0000 N   0  0  0  0  0  0  0  0  0  0  0  0
    5.8875    3.9505    0.0000 C   0  0  0  0  0  0  0  0  0  0  0  0
    7.2578    4.5606    0.0000 C   0  0  0  0  0  0  0  0  0  0  0  0
    7.4146    6.0524    0.0000 F   0  0  0  0  0  0  0  0  0  0  0  0
    8.4713    3.6789    0.0000 C   0  0  0  0  0  0  0  0  0  0  0  0
    9.8417    4.2890    0.0000 O   0  0  0  0  0  0  0  0  0  0  0  0
    2.9918    2.7549    0.0000 O   0  0  0  0  0  0  0  0  0  0  0  0
  1  2  1  0
  2  3  1  0
  2  4  1  0
  4  5  1  0
  5  6  2  0
  6  7  1  0
  7  8  1  0
  8  9  1  0
  9 10  2  0
 10 11  1  0
 11 12  2  0
 12 13  1  0
 13 14  3  0
 12 15  1  0
 15 16  2  0
  7 17  2  0
 17 18  1  0
 18 19  2  0
 19 20  1  0
 20 21  2  0
 21 22  1  0
 22 23  2  0
 23 24  1  0
 24 25  1  0
 25 26  1  0
 26 27  1  1
 26 28  1  0
 28 29  1  0
 23 30  1  0
 19  5  1  0
 30 20  1  0
 16  9  1  0
M  END
>  <Compound_ID>  (37) 
CHEMBL3917340

>  <Molecule Name>  (37) 
nan

>  <Molecular Weight>  (37) 
411.44

>  <AlogP>  (37) 
3.31

>  <Smiles>  (37) 
CC(C)Nc1cc(Nc2ccc(C#N)cc2)ncc1-c1nnc(NC[C@@H](F)CO)o1

>  <Standard Type>  (37) 
IC50

>  <Standard Relation>  (37) 
'='

>  <Standard Units>  (37) 
nM

>  <Standard Value>  (37) 
22.9

>  <Assay ChEMBL ID>  (37) 
CHEMBL3887888

>  <Assay Description>  (37) 
IRAK4 Inhibition Assay: The assays were performed in U-bottom 384-well plates. The final assay volume was 30 μL prepared from 15 μL additions of enzyme and substrates (fluoresceinated peptide and ATP) and test compounds in assay buffer (20 mM HEPES pH 7.2, 10 mM MgCl2, 0.015% Brij35 and 4 mM DTT). The reaction was initiated by the combination of IRAK4 with substrates and test compounds. The reaction was incubated at room temperature for 60 min. and terminated by adding 45 μL of 35 mM EDTA to each sample. The reaction mixture was analyzed on the Caliper LabChip 3000 (Caliper, Hopkinton, Mass.) by electrophoretic separation of the fluorescent substrate and phosphorylated product. Inhibition data were calculated by comparison to no enzyme control reactions for 100% inhibition and vehicle-only reactions for 0% inhibition. The final concentrations of reagents in the assays are ATP, 500 μM; FL-IPTSPITTTYFFFKKK peptide 1.5 μM; IRAK4, 0.6 nM; and DMSO, 1.6%.

>  <BAO Format ID>  (37) 
BAO_0000357

>  <BAO Label>  (37) 
single protein format

>  <Assay Organism>  (37) 
Homo sapiens

>  <Target ChEMBL ID>  (37) 
CHEMBL3778

>  <Target Name>  (37) 
Interleukin-1 receptor-associated kinase 4

>  <Target Organism>  (37) 
Homo sapiens

>  <Target Type>  (37) 
SINGLE PROTEIN

>  <Document ChEMBL ID>  (37) 
CHEMBL3886488

>  <Source Description>  (37) 
BindingDB Database

>  <Document Journal>  (37) 
nan

>  <Document Year>  (37) 
2016.0

>  <Active>  (37) 
1.0

>  <bits>  (37) 
<rdkit.DataStructs.cDataStructs.ExplicitBitVect object at 0x000001D1B3CFC890>

>  <Group>  (37) 
G1

$$$$

     RDKit          2D

 32 34  0  0  0  0  0  0  0  0999 V2000
    5.2500   -2.7990    0.0000 C   0  0  0  0  0  0  0  0  0  0  0  0
    5.2500   -1.2990    0.0000 C   0  0  0  0  0  0  0  0  0  0  0  0
    5.2500    0.2010    0.0000 C   0  0  0  0  0  0  0  0  0  0  0  0
    6.7500   -1.2990    0.0000 C   0  0  0  0  0  0  0  0  0  0  0  0
    3.7500   -1.2990    0.0000 C   0  0  0  0  0  0  0  0  0  0  0  0
    3.0000   -2.5981    0.0000 O   0  0  0  0  0  0  0  0  0  0  0  0
    3.0000    0.0000    0.0000 O   0  0  0  0  0  0  0  0  0  0  0  0
    1.5000    0.0000    0.0000 C   0  0  0  0  0  0  0  0  0  0  0  0
    0.7500   -1.2990    0.0000 C   0  0  0  0  0  0  0  0  0  0  0  0
   -0.7500   -1.2990    0.0000 C   0  0  0  0  0  0  0  0  0  0  0  0
   -1.5000    0.0000    0.0000 C   0  0  0  0  0  0  0  0  0  0  0  0
   -0.7500    1.2990    0.0000 C   0  0  0  0  0  0  0  0  0  0  0  0
    0.7500    1.2990    0.0000 C   0  0  0  0  0  0  0  0  0  0  0  0
   -1.7537    2.4138    0.0000 N   0  0  0  0  0  0  0  0  0  0  0  0
   -3.1240    1.8037    0.0000 C   0  0  0  0  0  0  0  0  0  0  0  0
   -4.4231    2.5537    0.0000 N   0  0  0  0  0  0  0  0  0  0  0  0
   -4.4231    4.0537    0.0000 C   0  0  0  0  0  0  0  0  0  0  0  0
   -3.1240    4.8037    0.0000 O   0  0  0  0  0  0  0  0  0  0  0  0
   -5.7221    4.8037    0.0000 C   0  0  0  0  0  0  0  0  0  0  0  0
   -5.7221    6.3037    0.0000 C   0  0  0  0  0  0  0  0  0  0  0  0
   -7.0211    7.0537    0.0000 C   0  0  0  0  0  0  0  0  0  0  0  0
   -8.3202    6.3037    0.0000 C   0  0  0  0  0  0  0  0  0  0  0  0
   -8.3202    4.8037    0.0000 C   0  0  0  0  0  0  0  0  0  0  0  0
   -9.6192    4.0537    0.0000 N   0  0  0  0  0  4  0  0  0  0  0  0
   -9.6192    2.5537    0.0000 O   0  0  0  0  0  0  0  0  0  0  0  0
  -10.9182    4.8037    0.0000 O   0  0  0  0  0  1  0  0  0  0  0  0
   -7.0211    4.0537    0.0000 C   0  0  0  0  0  0  0  0  0  0  0  0
   -2.9672    0.3119    0.0000 N   0  0  0  0  0  0  0  0  0  0  0  0
   -4.0819   -0.6918    0.0000 C   0  0  0  0  0  0  0  0  0  0  0  0
   -5.5085   -0.2283    0.0000 C   0  0  0  0  0  0  0  0  0  0  0  0
   -6.6232   -1.2320    0.0000 C   0  0  0  0  0  0  0  0  0  0  0  0
   -8.0498   -0.7685    0.0000 O   0  0  0  0  0  0  0  0  0  0  0  0
  1  2  1  0
  2  3  1  0
  2  4  1  0
  2  5  1  0
  5  6  2  0
  5  7  1  0
  7  8  1  0
  8  9  2  0
  9 10  1  0
 10 11  2  0
 11 12  1  0
 12 13  2  0
 12 14  1  0
 14 15  2  0
 15 16  1  0
 16 17  1  0
 17 18  2  0
 17 19  1  0
 19 20  2  0
 20 21  1  0
 21 22  2  0
 22 23  1  0
 23 24  1  0
 24 25  2  0
 24 26  1  0
 23 27  2  0
 15 28  1  0
 28 29  1  0
 29 30  1  0
 30 31  1  0
 31 32  1  0
 13  8  1  0
 27 19  1  0
 28 11  1  0
M  CHG  2  24   1  26  -1
M  END
>  <Compound_ID>  (38) 
CHEMBL1236126

>  <Molecule Name>  (38) 
nan

>  <Molecular Weight>  (38) 
440.46

>  <AlogP>  (38) 
3.53

>  <Smiles>  (38) 
CC(C)(C)C(=O)Oc1ccc2c(c1)nc(NC(=O)c1cccc([N+](=O)[O-])c1)n2CCCO

>  <Standard Type>  (38) 
Ki

>  <Standard Relation>  (38) 
'='

>  <Standard Units>  (38) 
nM

>  <Standard Value>  (38) 
1.2

>  <Assay ChEMBL ID>  (38) 
CHEMBL3380177

>  <Assay Description>  (38) 
Inhibition of IRAK4 (unknown origin)

>  <BAO Format ID>  (38) 
BAO_0000357

>  <BAO Label>  (38) 
single protein format

>  <Assay Organism>  (38) 
Homo sapiens

>  <Target ChEMBL ID>  (38) 
CHEMBL3778

>  <Target Name>  (38) 
Interleukin-1 receptor-associated kinase 4

>  <Target Organism>  (38) 
Homo sapiens

>  <Target Type>  (38) 
SINGLE PROTEIN

>  <Document ChEMBL ID>  (38) 
CHEMBL3351266

>  <Source Description>  (38) 
Scientific Literature

>  <Document Journal>  (38) 
J Med Chem

>  <Document Year>  (38) 
2015.0

>  <Active>  (38) 
1.0

>  <bits>  (38) 
<rdkit.DataStructs.cDataStructs.ExplicitBitVect object at 0x000001D1B3CFC900>

>  <Group>  (38) 
G1

$$$$

     RDKit          2D

 38 42  0  0  0  0  0  0  0  0999 V2000
   -1.3154  -11.4006    0.0000 C   0  0  0  0  0  0  0  0  0  0  0  0
   -2.1971  -10.1871    0.0000 C   0  0  0  0  0  0  0  0  0  0  0  0
   -3.6888  -10.3438    0.0000 C   0  0  0  0  0  0  0  0  0  0  0  0
   -4.5705   -9.1303    0.0000 C   0  0  0  0  0  0  0  0  0  0  0  0
   -3.9604   -7.7600    0.0000 C   0  0  0  0  0  0  0  0  0  0  0  0
   -4.8421   -6.5465    0.0000 N   0  0  0  0  0  0  0  0  0  0  0  0
   -6.3421   -6.5465    0.0000 N   0  0  0  0  0  0  0  0  0  0  0  0
   -6.8056   -5.1199    0.0000 C   0  0  0  0  0  0  0  0  0  0  0  0
   -8.2322   -4.6564    0.0000 C   0  0  0  0  0  0  0  0  0  0  0  0
   -8.5441   -3.1891    0.0000 C   0  0  0  0  0  0  0  0  0  0  0  0
   -9.9707   -2.7256    0.0000 C   0  0  0  0  0  0  0  0  0  0  0  0
  -11.0854   -3.7293    0.0000 C   0  0  0  0  0  0  0  0  0  0  0  0
  -12.5120   -3.2658    0.0000 S   0  0  0  0  0  0  0  0  0  0  0  0
  -13.9385   -2.8023    0.0000 C   0  0  0  0  0  0  0  0  0  0  0  0
  -12.9755   -4.6924    0.0000 O   0  0  0  0  0  0  0  0  0  0  0  0
  -12.0484   -1.8392    0.0000 O   0  0  0  0  0  0  0  0  0  0  0  0
  -10.7735   -5.1965    0.0000 C   0  0  0  0  0  0  0  0  0  0  0  0
   -9.3469   -5.6601    0.0000 C   0  0  0  0  0  0  0  0  0  0  0  0
   -9.0350   -7.1273    0.0000 C   0  0  0  0  0  0  0  0  0  0  0  0
   -8.7232   -8.5945    0.0000 F   0  0  0  0  0  0  0  0  0  0  0  0
  -10.5023   -7.4392    0.0000 F   0  0  0  0  0  0  0  0  0  0  0  0
   -7.5678   -6.8154    0.0000 F   0  0  0  0  0  0  0  0  0  0  0  0
   -5.5921   -4.2382    0.0000 C   0  0  0  0  0  0  0  0  0  0  0  0
   -4.3786   -5.1199    0.0000 C   0  0  0  0  0  0  0  0  0  0  0  0
   -2.9520   -4.6564    0.0000 N   0  0  0  0  0  0  0  0  0  0  0  0
   -2.6401   -3.1891    0.0000 C   0  0  0  0  0  0  0  0  0  0  0  0
   -3.7548   -2.1855    0.0000 O   0  0  0  0  0  0  0  0  0  0  0  0
   -1.2135   -2.7256    0.0000 C   0  0  0  0  0  0  0  0  0  0  0  0
   -0.0000   -3.6073    0.0000 C   0  0  0  0  0  0  0  0  0  0  0  0
    1.2135   -2.7256    0.0000 N   0  0  0  0  0  0  0  0  0  0  0  0
    0.7500   -1.2990    0.0000 N   0  0  0  0  0  0  0  0  0  0  0  0
    1.5000    0.0000    0.0000 C   0  0  0  0  0  0  0  0  0  0  0  0
    0.7500    1.2990    0.0000 C   0  0  0  0  0  0  0  0  0  0  0  0
   -0.7500    1.2990    0.0000 C   0  0  0  0  0  0  0  0  0  0  0  0
   -1.5000    0.0000    0.0000 N   0  0  0  0  0  0  0  0  0  0  0  0
   -0.7500   -1.2990    0.0000 C   0  0  0  0  0  0  0  0  0  0  0  0
   -2.4686   -7.6032    0.0000 C   0  0  0  0  0  0  0  0  0  0  0  0
   -1.5869   -8.8167    0.0000 C   0  0  0  0  0  0  0  0  0  0  0  0
  1  2  1  0
  2  3  2  0
  3  4  1  0
  4  5  2  0
  5  6  1  0
  6  7  1  0
  7  8  2  0
  8  9  1  0
  9 10  2  0
 10 11  1  0
 11 12  2  0
 12 13  1  0
 13 14  1  0
 13 15  2  0
 13 16  2  0
 12 17  1  0
 17 18  2  0
 18 19  1  0
 19 20  1  0
 19 21  1  0
 19 22  1  0
  8 23  1  0
 23 24  2  0
 24 25  1  0
 25 26  1  0
 26 27  2  0
 26 28  1  0
 28 29  1  0
 29 30  2  0
 30 31  1  0
 31 32  1  0
 32 33  2  0
 33 34  1  0
 34 35  2  0
 35 36  1  0
  5 37  1  0
 37 38  2  0
 38  2  1  0
 24  6  1  0
 36 28  2  0
 18  9  1  0
 36 31  1  0
M  END
>  <Compound_ID>  (39) 
CHEMBL3942073

>  <Molecule Name>  (39) 
nan

>  <Molecular Weight>  (39) 
540.53

>  <AlogP>  (39) 
4.57

>  <Smiles>  (39) 
Cc1ccc(-n2nc(-c3ccc(S(C)(=O)=O)cc3C(F)(F)F)cc2NC(=O)c2cnn3cccnc23)cc1

>  <Standard Type>  (39) 
IC50

>  <Standard Relation>  (39) 
'='

>  <Standard Units>  (39) 
nM

>  <Standard Value>  (39) 
100.0

>  <Assay ChEMBL ID>  (39) 
CHEMBL3887430

>  <Assay Description>  (39) 
Kinase Assay: The kinase activity of IRAK-4 is determined by its ability to catalyze the phosphorylation of a fluorescent polypeptide substrate. The extent of phosphorylation is measured using the IMAP technology (Molecular Devices) where the phosphorylated fluorescent substrate binds to the large M(III)-based nanoparticles which reduces the rotational speed of the substrate and thus increases its fluorescent polarization (FP). 20 μl reaction mixture contains 10 mM TriHCl, pH 7.2, 0.5 nM GST tagged IRAK-4 (SignalChem), 100 nM fluorescent peptide substrate (RP7030, Molecular Devices), 100 μM ATP, 1 mM DTT, 1 mM MgCl2, and 0.01% Tween 20. The reaction is initiated by the addition of ATP. After incubation for 30 minutes at 25° C., 60 μl of Progressive IMAP Reagent (Molecular Devices) is added to stop the reaction. Change in RP7030's FP is determined by a FP reader (Analyst HT, LH, BioSystems).

>  <BAO Format ID>  (39) 
BAO_0000357

>  <BAO Label>  (39) 
single protein format

>  <Assay Organism>  (39) 
Homo sapiens

>  <Target ChEMBL ID>  (39) 
CHEMBL3778

>  <Target Name>  (39) 
Interleukin-1 receptor-associated kinase 4

>  <Target Organism>  (39) 
Homo sapiens

>  <Target Type>  (39) 
SINGLE PROTEIN

>  <Document ChEMBL ID>  (39) 
CHEMBL3886319

>  <Source Description>  (39) 
BindingDB Database

>  <Document Journal>  (39) 
nan

>  <Document Year>  (39) 
2015.0

>  <Active>  (39) 
1.0

>  <bits>  (39) 
<rdkit.DataStructs.cDataStructs.ExplicitBitVect object at 0x000001D1B3CFC970>

>  <Group>  (39) 
G1

$$$$

     RDKit          2D

 31 34  0  0  0  0  0  0  0  0999 V2000
  -12.0000   -4.0981    0.0000 C   0  0  0  0  0  0  0  0  0  0  0  0
  -12.0000   -2.5981    0.0000 C   0  0  0  0  0  0  0  0  0  0  0  0
  -12.0000   -1.0981    0.0000 C   0  0  0  0  0  0  0  0  0  0  0  0
  -13.5000   -2.5981    0.0000 O   0  0  0  0  0  0  0  0  0  0  0  0
  -10.5000   -2.5981    0.0000 C   0  0  0  0  0  0  0  0  0  0  0  0
   -9.7500   -1.2990    0.0000 F   0  0  0  0  0  0  0  0  0  0  0  0
   -9.7500   -3.8971    0.0000 C   0  0  0  0  0  0  0  0  0  0  0  0
   -8.2500   -3.8971    0.0000 N   0  0  0  0  0  0  0  0  0  0  0  0
   -7.5000   -5.1962    0.0000 C   0  0  0  0  0  0  0  0  0  0  0  0
   -8.2500   -6.4952    0.0000 O   0  0  0  0  0  0  0  0  0  0  0  0
   -6.0000   -5.1962    0.0000 C   0  0  0  0  0  0  0  0  0  0  0  0
   -5.2500   -3.8971    0.0000 C   0  0  0  0  0  0  0  0  0  0  0  0
   -3.7500   -3.8971    0.0000 N   0  0  0  0  0  0  0  0  0  0  0  0
   -3.0000   -5.1962    0.0000 C   0  0  0  0  0  0  0  0  0  0  0  0
   -1.5000   -5.1962    0.0000 N   0  0  0  0  0  0  0  0  0  0  0  0
   -0.7500   -3.8971    0.0000 C   0  0  0  0  0  0  0  0  0  0  0  0
    0.7500   -3.8971    0.0000 C   0  0  0  0  0  0  0  0  0  0  0  0
    1.5000   -2.5981    0.0000 C   0  0  0  0  0  0  0  0  0  0  0  0
    0.7500   -1.2990    0.0000 C   0  0  0  0  0  0  0  0  0  0  0  0
    1.5000    0.0000    0.0000 C   0  0  0  0  0  0  0  0  0  0  0  0
    0.7500    1.2990    0.0000 N   0  0  0  0  0  0  0  0  0  0  0  0
   -0.7500    1.2990    0.0000 C   0  0  0  0  0  0  0  0  0  0  0  0
   -1.5000    0.0000    0.0000 C   0  0  0  0  0  0  0  0  0  0  0  0
   -0.7500   -1.2990    0.0000 C   0  0  0  0  0  0  0  0  0  0  0  0
   -1.5000   -2.5981    0.0000 N   0  0  0  0  0  0  0  0  0  0  0  0
   -3.7500   -6.4952    0.0000 C   0  0  0  0  0  0  0  0  0  0  0  0
   -5.2500   -6.4952    0.0000 C   0  0  0  0  0  0  0  0  0  0  0  0
   -6.0000   -7.7942    0.0000 N   0  0  0  0  0  0  0  0  0  0  0  0
   -5.2500   -9.0933    0.0000 C   0  0  0  0  0  0  0  0  0  0  0  0
   -3.9510   -9.8433    0.0000 C   0  0  0  0  0  0  0  0  0  0  0  0
   -5.2500  -10.5933    0.0000 C   0  0  0  0  0  0  0  0  0  0  0  0
  1  2  1  0
  2  3  1  0
  2  4  1  0
  2  5  1  0
  5  6  1  6
  5  7  1  0
  7  8  1  0
  8  9  1  0
  9 10  2  0
  9 11  1  0
 11 12  2  0
 12 13  1  0
 13 14  2  0
 14 15  1  0
 15 16  1  0
 16 17  2  0
 17 18  1  0
 18 19  2  0
 19 20  1  0
 20 21  2  0
 21 22  1  0
 22 23  2  0
 23 24  1  0
 24 25  2  0
 14 26  1  0
 26 27  2  0
 27 28  1  0
 28 29  1  0
 29 30  1  0
 30 31  1  0
 27 11  1  0
 31 29  1  0
 25 16  1  0
 24 19  1  0
M  END
>  <Compound_ID>  (40) 
CHEMBL3352825

>  <Molecule Name>  (40) 
nan

>  <Molecular Weight>  (40) 
424.48

>  <AlogP>  (40) 
3.18

>  <Smiles>  (40) 
CC(C)(O)[C@H](F)CNC(=O)c1cnc(Nc2ccc3cnccc3n2)cc1NC1CC1

>  <Standard Type>  (40) 
IC50

>  <Standard Relation>  (40) 
'='

>  <Standard Units>  (40) 
nM

>  <Standard Value>  (40) 
5.6

>  <Assay ChEMBL ID>  (40) 
CHEMBL3380182

>  <Assay Description>  (40) 
Inhibition of IRAK4 (unknown origin) using fluoresceinated peptide and ATP after 60 mins by by Caliper assay

>  <BAO Format ID>  (40) 
BAO_0000357

>  <BAO Label>  (40) 
single protein format

>  <Assay Organism>  (40) 
Homo sapiens

>  <Target ChEMBL ID>  (40) 
CHEMBL3778

>  <Target Name>  (40) 
Interleukin-1 receptor-associated kinase 4

>  <Target Organism>  (40) 
Homo sapiens

>  <Target Type>  (40) 
SINGLE PROTEIN

>  <Document ChEMBL ID>  (40) 
CHEMBL3351266

>  <Source Description>  (40) 
Scientific Literature

>  <Document Journal>  (40) 
J Med Chem

>  <Document Year>  (40) 
2015.0

>  <Active>  (40) 
1.0

>  <bits>  (40) 
<rdkit.DataStructs.cDataStructs.ExplicitBitVect object at 0x000001D1B3CFC9E0>

>  <Group>  (40) 
G1

$$$$

     RDKit          2D

 30 33  0  0  0  0  0  0  0  0999 V2000
   -8.2322   -4.6564    0.0000 C   0  0  0  0  0  0  0  0  0  0  0  0
   -6.8056   -5.1199    0.0000 N   0  0  0  0  0  0  0  0  0  0  0  0
   -5.5921   -4.2382    0.0000 C   0  0  0  0  0  0  0  0  0  0  0  0
   -4.3786   -5.1199    0.0000 C   0  0  0  0  0  0  0  0  0  0  0  0
   -2.9520   -4.6564    0.0000 N   0  0  0  0  0  0  0  0  0  0  0  0
   -2.6401   -3.1891    0.0000 C   0  0  0  0  0  0  0  0  0  0  0  0
   -3.7548   -2.1855    0.0000 O   0  0  0  0  0  0  0  0  0  0  0  0
   -1.2135   -2.7256    0.0000 C   0  0  0  0  0  0  0  0  0  0  0  0
   -0.0000   -3.6073    0.0000 C   0  0  0  0  0  0  0  0  0  0  0  0
    1.2135   -2.7256    0.0000 C   0  0  0  0  0  0  0  0  0  0  0  0
    0.7500   -1.2990    0.0000 C   0  0  0  0  0  0  0  0  0  0  0  0
    1.5000    0.0000    0.0000 C   0  0  0  0  0  0  0  0  0  0  0  0
    0.7500    1.2990    0.0000 N   0  0  0  0  0  0  0  0  0  0  0  0
   -0.7500    1.2990    0.0000 C   0  0  0  0  0  0  0  0  0  0  0  0
   -1.5000    2.5981    0.0000 N   0  0  0  0  0  0  0  0  0  0  0  0
   -0.7500    3.8971    0.0000 C   0  0  0  0  0  0  0  0  0  0  0  0
    0.7500    3.8971    0.0000 C   0  0  0  0  0  0  0  0  0  0  0  0
    1.5000    5.1962    0.0000 C   0  0  0  0  0  0  0  0  0  0  0  0
    0.7500    6.4952    0.0000 C   0  0  0  0  0  0  0  0  0  0  0  0
   -0.7500    6.4952    0.0000 C   0  0  0  0  0  0  0  0  0  0  0  0
   -1.5000    5.1962    0.0000 C   0  0  0  0  0  0  0  0  0  0  0  0
   -3.0000    5.1962    0.0000 N   0  0  0  0  0  0  0  0  0  0  0  0
   -1.5000    0.0000    0.0000 N   0  0  0  0  0  0  0  0  0  0  0  0
   -0.7500   -1.2990    0.0000 N   0  0  0  0  0  0  0  0  0  0  0  0
   -4.8421   -6.5465    0.0000 C   0  0  0  0  0  0  0  0  0  0  0  0
   -3.9604   -7.7600    0.0000 C   0  0  0  0  0  0  0  0  0  0  0  0
   -3.0787   -8.9735    0.0000 F   0  0  0  0  0  0  0  0  0  0  0  0
   -5.1739   -8.6417    0.0000 F   0  0  0  0  0  0  0  0  0  0  0  0
   -2.7469   -6.8783    0.0000 F   0  0  0  0  0  0  0  0  0  0  0  0
   -6.3421   -6.5465    0.0000 N   0  0  0  0  0  0  0  0  0  0  0  0
  1  2  1  0
  2  3  1  0
  3  4  2  0
  4  5  1  0
  5  6  1  0
  6  7  2  0
  6  8  1  0
  8  9  2  0
  9 10  1  0
 10 11  2  0
 11 12  1  0
 12 13  2  0
 13 14  1  0
 14 15  1  0
 16 15  1  1
 16 17  1  0
 17 18  1  0
 18 19  1  0
 19 20  1  0
 20 21  1  0
 21 22  1  1
 14 23  2  0
 23 24  1  0
  4 25  1  0
 25 26  1  0
 26 27  1  0
 26 28  1  0
 26 29  1  0
 25 30  2  0
 30  2  1  0
 24  8  1  0
 24 11  1  0
 21 16  1  0
M  END
>  <Compound_ID>  (41) 
CHEMBL3634378

>  <Molecule Name>  (41) 
nan

>  <Molecular Weight>  (41) 
422.42

>  <AlogP>  (41) 
2.42

>  <Smiles>  (41) 
Cn1cc(NC(=O)c2ccc3cnc(N[C@@H]4CCCC[C@@H]4N)nn23)c(C(F)(F)F)n1

>  <Standard Type>  (41) 
IC50

>  <Standard Relation>  (41) 
'='

>  <Standard Units>  (41) 
nM

>  <Standard Value>  (41) 
40.0

>  <Assay ChEMBL ID>  (41) 
CHEMBL3637447

>  <Assay Description>  (41) 
Inhibition of IRAK4 in human PBMC

>  <BAO Format ID>  (41) 
BAO_0000357

>  <BAO Label>  (41) 
single protein format

>  <Assay Organism>  (41) 
Homo sapiens

>  <Target ChEMBL ID>  (41) 
CHEMBL3778

>  <Target Name>  (41) 
Interleukin-1 receptor-associated kinase 4

>  <Target Organism>  (41) 
Homo sapiens

>  <Target Type>  (41) 
SINGLE PROTEIN

>  <Document ChEMBL ID>  (41) 
CHEMBL3632465

>  <Source Description>  (41) 
Scientific Literature

>  <Document Journal>  (41) 
Bioorg Med Chem Lett

>  <Document Year>  (41) 
2015.0

>  <Active>  (41) 
1.0

>  <bits>  (41) 
<rdkit.DataStructs.cDataStructs.ExplicitBitVect object at 0x000001D1B3CFCA50>

>  <Group>  (41) 
G1

$$$$

     RDKit          2D

 67 72  0  0  0  0  0  0  0  0999 V2000
    3.7500   -1.2990    0.0000 C   0  0  0  0  0  0  0  0  0  0  0  0
    3.0000    0.0000    0.0000 O   0  0  0  0  0  0  0  0  0  0  0  0
    1.5000    0.0000    0.0000 C   0  0  0  0  0  0  0  0  0  0  0  0
    0.7500   -1.2990    0.0000 C   0  0  0  0  0  0  0  0  0  0  0  0
   -0.7500   -1.2990    0.0000 C   0  0  0  0  0  0  0  0  0  0  0  0
   -1.5000   -2.5981    0.0000 C   0  0  0  0  0  0  0  0  0  0  0  0
   -0.7500   -3.8971    0.0000 O   0  0  0  0  0  0  0  0  0  0  0  0
   -1.5000   -5.1962    0.0000 C   0  0  0  0  0  0  0  0  0  0  0  0
   -0.7500   -6.4952    0.0000 C   0  0  0  0  0  0  0  0  0  0  0  0
    0.7418   -6.6520    0.0000 C   0  0  0  0  0  0  0  0  0  0  0  0
    1.0537   -8.1192    0.0000 C   0  0  0  0  0  0  0  0  0  0  0  0
   -0.2454   -8.8692    0.0000 C   0  0  0  0  0  0  0  0  0  0  0  0
   -0.4022  -10.3610    0.0000 O   0  0  0  0  0  0  0  0  0  0  0  0
   -1.3601   -7.8655    0.0000 N   0  0  0  0  0  0  0  0  0  0  0  0
   -3.0000   -2.5981    0.0000 N   0  0  0  0  0  0  0  0  0  0  0  0
   -3.7500   -1.2990    0.0000 C   0  0  0  0  0  0  0  0  0  0  0  0
   -3.0000    0.0000    0.0000 C   0  0  0  0  0  0  0  0  0  0  0  0
   -3.7500    1.2990    0.0000 C   0  0  0  0  0  0  0  0  0  0  0  0
   -4.5000    2.5981    0.0000 C   0  0  0  0  0  0  0  0  0  0  0  0
   -5.2500    3.8971    0.0000 C   0  0  0  0  0  0  0  0  0  0  0  0
   -6.7500    3.8971    0.0000 O   0  0  0  0  0  0  0  0  0  0  0  0
   -7.5000    5.1962    0.0000 C   0  0  0  0  0  0  0  0  0  0  0  0
   -9.0000    5.1962    0.0000 C   0  0  0  0  0  0  0  0  0  0  0  0
   -9.7500    6.4952    0.0000 O   0  0  0  0  0  0  0  0  0  0  0  0
  -11.2500    6.4952    0.0000 C   0  0  0  0  0  0  0  0  0  0  0  0
  -12.0000    7.7942    0.0000 C   0  0  0  0  0  0  0  0  0  0  0  0
  -13.5000    7.7942    0.0000 O   0  0  0  0  0  0  0  0  0  0  0  0
  -14.2500    9.0933    0.0000 C   0  0  0  0  0  0  0  0  0  0  0  0
  -15.7500    9.0933    0.0000 C   0  0  0  0  0  0  0  0  0  0  0  0
  -16.5000   10.3923    0.0000 C   0  0  0  0  0  0  0  0  0  0  0  0
  -15.7500   11.6913    0.0000 O   0  0  0  0  0  0  0  0  0  0  0  0
  -18.0000   10.3923    0.0000 N   0  0  0  0  0  0  0  0  0  0  0  0
  -18.7500   11.6913    0.0000 C   0  0  0  0  0  0  0  0  0  0  0  0
  -18.0000   12.9904    0.0000 C   0  0  0  0  0  0  0  0  0  0  0  0
  -16.5000   12.9904    0.0000 O   0  0  0  0  0  0  0  0  0  0  0  0
  -18.7500   14.2894    0.0000 N   0  0  0  0  0  0  0  0  0  0  0  0
  -20.2418   14.4462    0.0000 C   0  0  0  0  0  0  0  0  0  0  0  0
  -20.5537   15.9134    0.0000 C   0  0  0  0  0  0  0  0  0  0  0  0
  -21.9240   16.5235    0.0000 O   0  0  0  0  0  0  0  0  0  0  0  0
  -19.2546   16.6634    0.0000 C   0  0  0  0  0  0  0  0  0  0  0  0
  -18.1399   15.6597    0.0000 C   0  0  0  0  0  0  0  0  0  0  0  0
  -16.6727   15.9716    0.0000 C   0  0  0  0  0  0  0  0  0  0  0  0
  -15.6690   14.8569    0.0000 O   0  0  0  0  0  0  0  0  0  0  0  0
  -16.2091   17.3982    0.0000 N   0  0  0  0  0  0  0  0  0  0  0  0
  -14.7419   17.7101    0.0000 C   0  0  0  0  0  0  0  0  0  0  0  0
  -14.2784   19.1366    0.0000 C   0  0  0  0  0  0  0  0  0  0  0  0
  -12.8112   19.4485    0.0000 C   0  0  0  0  0  0  0  0  0  0  0  0
  -12.3477   20.8751    0.0000 C   0  0  0  0  0  0  0  0  0  0  0  0
  -13.3514   21.9898    0.0000 C   0  0  0  0  0  0  0  0  0  0  0  0
  -12.8878   23.4164    0.0000 C   0  0  0  0  0  0  0  0  0  0  0  0
  -13.7695   24.6299    0.0000 S   0  0  0  0  0  0  0  0  0  0  0  0
  -12.8878   25.8434    0.0000 C   0  0  0  0  0  0  0  0  0  0  0  0
  -11.4612   25.3799    0.0000 N   0  0  0  0  0  0  0  0  0  0  0  0
  -11.4612   23.8799    0.0000 C   0  0  0  0  0  0  0  0  0  0  0  0
  -10.2477   22.9982    0.0000 C   0  0  0  0  0  0  0  0  0  0  0  0
  -14.8186   21.6779    0.0000 C   0  0  0  0  0  0  0  0  0  0  0  0
  -15.2821   20.2514    0.0000 C   0  0  0  0  0  0  0  0  0  0  0  0
  -20.2500   11.6913    0.0000 C   0  0  0  0  0  0  0  0  0  0  0  0
  -20.2500   13.1913    0.0000 C   0  0  0  0  0  0  0  0  0  0  0  0
  -20.2500   10.1913    0.0000 C   0  0  0  0  0  0  0  0  0  0  0  0
  -21.7500   11.6913    0.0000 C   0  0  0  0  0  0  0  0  0  0  0  0
   -1.5000    0.0000    0.0000 C   0  0  0  0  0  0  0  0  0  0  0  0
   -0.7500    1.2990    0.0000 C   0  0  0  0  0  0  0  0  0  0  0  0
    0.7500    1.2990    0.0000 C   0  0  0  0  0  0  0  0  0  0  0  0
    1.5000    2.5981    0.0000 C   0  0  0  0  0  0  0  0  0  0  0  0
    3.0000    2.5981    0.0000 N   0  0  0  0  0  0  0  0  0  0  0  0
    0.7500    3.8971    0.0000 O   0  0  0  0  0  0  0  0  0  0  0  0
  1  2  1  0
  2  3  1  0
  3  4  2  0
  4  5  1  0
  5  6  2  0
  6  7  1  0
  7  8  1  0
  9  8  1  6
  9 10  1  0
 10 11  1  0
 11 12  1  0
 12 13  2  0
 12 14  1  0
  6 15  1  0
 15 16  2  0
 16 17  1  0
 17 18  1  0
 18 19  3  0
 19 20  1  0
 20 21  1  0
 21 22  1  0
 22 23  1  0
 23 24  1  0
 24 25  1  0
 25 26  1  0
 26 27  1  0
 27 28  1  0
 28 29  1  0
 29 30  1  0
 30 31  2  0
 30 32  1  0
 33 32  1  1
 33 34  1  0
 34 35  2  0
 34 36  1  0
 36 37  1  0
 37 38  1  0
 38 39  1  6
 38 40  1  0
 40 41  1  0
 41 42  1  1
 42 43  2  0
 42 44  1  0
 44 45  1  0
 45 46  1  0
 46 47  2  0
 47 48  1  0
 48 49  2  0
 49 50  1  0
 50 51  1  0
 51 52  1  0
 52 53  2  0
 53 54  1  0
 54 55  1  0
 49 56  1  0
 56 57  2  0
 33 58  1  0
 58 59  1  0
 58 60  1  0
 58 61  1  0
 17 62  2  0
 62 63  1  0
 63 64  2  0
 64 65  1  0
 65 66  1  0
 65 67  2  0
 64  3  1  0
 62  5  1  0
 14  9  1  0
 41 36  1  0
 57 46  1  0
 54 50  2  0
M  END
>  <Compound_ID>  (42) 
CHEMBL4524299

>  <Molecule Name>  (42) 
nan

>  <Molecular Weight>  (42) 
942.11

>  <AlogP>  (42) 
3.03

>  <Smiles>  (42) 
COc1cc2c(OC[C@@H]3CCC(=O)N3)ncc(C#CCOCCOCCOCCC(=O)N[C@H](C(=O)N3C[C@H](O)C[C@H]3C(=O)NCc3ccc(-c4scnc4C)cc3)C(C)(C)C)c2cc1C(N)=O

>  <Standard Type>  (42) 
IC50

>  <Standard Relation>  (42) 
'='

>  <Standard Units>  (42) 
nM

>  <Standard Value>  (42) 
0.29

>  <Assay ChEMBL ID>  (42) 
CHEMBL4361896

>  <Assay Description>  (42) 
Binding affinity to human IRK4 using myelin basic protein as substrate by [gamma-33P]-ATP assay

>  <BAO Format ID>  (42) 
BAO_0000357

>  <BAO Label>  (42) 
single protein format

>  <Assay Organism>  (42) 
Homo sapiens

>  <Target ChEMBL ID>  (42) 
CHEMBL3778

>  <Target Name>  (42) 
Interleukin-1 receptor-associated kinase 4

>  <Target Organism>  (42) 
Homo sapiens

>  <Target Type>  (42) 
SINGLE PROTEIN

>  <Document ChEMBL ID>  (42) 
CHEMBL4359855

>  <Source Description>  (42) 
Scientific Literature

>  <Document Journal>  (42) 
ACS Med Chem Lett

>  <Document Year>  (42) 
2019.0

>  <Active>  (42) 
1.0

>  <bits>  (42) 
<rdkit.DataStructs.cDataStructs.ExplicitBitVect object at 0x000001D1B3CFCAC0>

>  <Group>  (42) 
G1

$$$$

     RDKit          2D

 30 33  0  0  0  0  0  0  0  0999 V2000
    7.5771   10.7086    0.0000 C   0  0  0  0  0  0  0  0  0  0  0  0
    6.1099   10.3968    0.0000 C   0  0  0  0  0  0  0  0  0  0  0  0
    5.6464    8.9702    0.0000 C   0  0  0  0  0  0  0  0  0  0  0  0
    4.1791    8.6583    0.0000 C   0  0  0  0  0  0  0  0  0  0  0  0
    3.7156    7.2317    0.0000 N   0  0  0  0  0  0  0  0  0  0  0  0
    2.2484    6.9199    0.0000 C   0  0  0  0  0  0  0  0  0  0  0  0
    1.2447    8.0346    0.0000 O   0  0  0  0  0  0  0  0  0  0  0  0
    1.7849    5.4933    0.0000 C   0  0  0  0  0  0  0  0  0  0  0  0
    2.7886    4.3786    0.0000 C   0  0  0  0  0  0  0  0  0  0  0  0
    2.3250    2.9520    0.0000 N   0  0  0  0  0  0  0  0  0  0  0  0
    0.8578    2.6401    0.0000 C   0  0  0  0  0  0  0  0  0  0  0  0
    0.3943    1.2135    0.0000 N   0  0  0  0  0  0  0  0  0  0  0  0
    1.2760    0.0000    0.0000 N   0  0  0  0  0  0  0  0  0  0  0  0
    0.3943   -1.2135    0.0000 C   0  0  0  0  0  0  0  0  0  0  0  0
   -1.0323   -0.7500    0.0000 C   0  0  0  0  0  0  0  0  0  0  0  0
   -2.3313   -1.5000    0.0000 C   0  0  0  0  0  0  0  0  0  0  0  0
   -3.6304   -0.7500    0.0000 C   0  0  0  0  0  0  0  0  0  0  0  0
   -4.9294   -1.5000    0.0000 C   0  0  0  0  0  0  0  0  0  0  0  0
   -6.2284   -2.2500    0.0000 N   0  0  0  0  0  0  0  0  0  0  0  0
   -3.6304    0.7500    0.0000 C   0  0  0  0  0  0  0  0  0  0  0  0
   -4.9294    1.5000    0.0000 N   0  0  0  0  0  0  0  0  0  0  0  0
   -2.3313    1.5000    0.0000 N   0  0  0  0  0  0  0  0  0  0  0  0
   -1.0323    0.7500    0.0000 C   0  0  0  0  0  0  0  0  0  0  0  0
   -0.1459    3.7548    0.0000 C   0  0  0  0  0  0  0  0  0  0  0  0
    0.3177    5.1814    0.0000 C   0  0  0  0  0  0  0  0  0  0  0  0
   -0.6860    6.2961    0.0000 N   0  0  0  0  0  0  0  0  0  0  0  0
   -2.1533    5.9843    0.0000 C   0  0  0  0  0  0  0  0  0  0  0  0
   -3.4113    6.8012    0.0000 C   0  0  0  0  0  0  0  0  0  0  0  0
   -4.2282    5.5432    0.0000 O   0  0  0  0  0  0  0  0  0  0  0  0
   -2.9702    4.7263    0.0000 C   0  0  0  0  0  0  0  0  0  0  0  0
  1  2  1  0
  2  3  1  0
  3  4  1  0
  4  5  1  0
  5  6  1  0
  6  7  2  0
  6  8  1  0
  8  9  2  0
  9 10  1  0
 10 11  2  0
 11 12  1  0
 12 13  1  0
 13 14  2  0
 14 15  1  0
 15 16  2  0
 16 17  1  0
 17 18  1  0
 18 19  3  0
 17 20  2  0
 20 21  1  0
 20 22  1  0
 22 23  2  0
 11 24  1  0
 24 25  2  0
 25 26  1  0
 26 27  1  0
 27 28  1  0
 28 29  1  0
 29 30  1  0
 25  8  1  0
 30 27  1  0
 23 12  1  0
 23 15  1  0
M  END
>  <Compound_ID>  (43) 
CHEMBL3951721

>  <Molecule Name>  (43) 
nan

>  <Molecular Weight>  (43) 
406.45

>  <AlogP>  (43) 
1.61

>  <Smiles>  (43) 
CCCCNC(=O)c1cnc(-n2ncc3cc(C#N)c(N)nc32)cc1NC1COC1

>  <Standard Type>  (43) 
IC50

>  <Standard Relation>  (43) 
'='

>  <Standard Units>  (43) 
nM

>  <Standard Value>  (43) 
5.3

>  <Assay ChEMBL ID>  (43) 
CHEMBL3887118

>  <Assay Description>  (43) 
Inhibition Assay: The assays were performed in U-bottom 384-well plates. The final assay volume was 30 L prepared from 15 L additions of enzyme and substrates (fluoresceinated peptide and ATP) and test compounds in assay buffer (20 mM HEPES pH 7.2, 10 mM MgCl2, 0.015% Brij 35 and 4 mM DTT). The reaction was initiated by the combination of IRAK4 with substrates and test compounds. The reaction mixture was incubated at room temperature for 60 min. and terminated by adding 45 μL of 35 mM EDTA to each sample. The reaction mixture was analyzed on the Caliper LABCHIP® 3000 (Caliper, Hopkinton, Mass.) by electrophoretic separation of the fluorescent substrate and phosphorylated product. Inhibition data were calculated by comparison to no enzyme control reactions for 100% inhibition and vehicle-only reactions for 0% inhibition. The final concentrations of reagents in the assays are ATP, 500 μM; FL-IPTSPITTTYFFFKKK peptide 1.5 μM; IRAK4, 0.6 nM; and DMSO, 1.6%.

>  <BAO Format ID>  (43) 
BAO_0000357

>  <BAO Label>  (43) 
single protein format

>  <Assay Organism>  (43) 
Homo sapiens

>  <Target ChEMBL ID>  (43) 
CHEMBL3778

>  <Target Name>  (43) 
Interleukin-1 receptor-associated kinase 4

>  <Target Organism>  (43) 
Homo sapiens

>  <Target Type>  (43) 
SINGLE PROTEIN

>  <Document ChEMBL ID>  (43) 
CHEMBL3886172

>  <Source Description>  (43) 
BindingDB Database

>  <Document Journal>  (43) 
nan

>  <Document Year>  (43) 
2015.0

>  <Active>  (43) 
1.0

>  <bits>  (43) 
<rdkit.DataStructs.cDataStructs.ExplicitBitVect object at 0x000001D1B3CFCB30>

>  <Group>  (43) 
G1

$$$$

     RDKit          2D

 21 23  0  0  0  0  0  0  0  0999 V2000
    8.2500   -3.8971    0.0000 C   0  0  0  0  0  0  0  0  0  0  0  0
    7.5000   -2.5981    0.0000 N   0  0  0  0  0  0  0  0  0  0  0  0
    8.2500   -1.2990    0.0000 C   0  0  0  0  0  0  0  0  0  0  0  0
    6.0000   -2.5981    0.0000 C   0  0  0  0  0  0  0  0  0  0  0  0
    5.2500   -3.8971    0.0000 C   0  0  0  0  0  0  0  0  0  0  0  0
    3.7500   -3.8971    0.0000 C   0  0  0  0  0  0  0  0  0  0  0  0
    3.0000   -2.5981    0.0000 C   0  0  0  0  0  0  0  0  0  0  0  0
    1.5000   -2.5981    0.0000 N   0  0  0  0  0  0  0  0  0  0  0  0
    0.7500   -1.2990    0.0000 C   0  0  0  0  0  0  0  0  0  0  0  0
    1.5000    0.0000    0.0000 N   0  0  0  0  0  0  0  0  0  0  0  0
    0.7500    1.2990    0.0000 C   0  0  0  0  0  0  0  0  0  0  0  0
   -0.7500    1.2990    0.0000 N   0  0  0  0  0  0  0  0  0  0  0  0
   -1.5000    0.0000    0.0000 C   0  0  0  0  0  0  0  0  0  0  0  0
   -2.9672   -0.3119    0.0000 N   0  0  0  0  0  0  0  0  0  0  0  0
   -3.1240   -1.8037    0.0000 C   0  0  0  0  0  0  0  0  0  0  0  0
   -1.7537   -2.4138    0.0000 C   0  0  0  0  0  0  0  0  0  0  0  0
   -1.4418   -3.8810    0.0000 C   0  0  0  0  0  0  0  0  0  0  0  0
   -1.1300   -5.3482    0.0000 N   0  0  0  0  0  0  0  0  0  0  0  0
   -0.7500   -1.2990    0.0000 C   0  0  0  0  0  0  0  0  0  0  0  0
    3.7500   -1.2990    0.0000 C   0  0  0  0  0  0  0  0  0  0  0  0
    5.2500   -1.2990    0.0000 C   0  0  0  0  0  0  0  0  0  0  0  0
  1  2  1  0
  2  3  1  0
  4  2  1  1
  4  5  1  0
  5  6  1  0
  6  7  1  0
  7  8  1  6
  8  9  1  0
  9 10  2  0
 10 11  1  0
 11 12  2  0
 12 13  1  0
 13 14  1  0
 14 15  1  0
 15 16  2  0
 16 17  1  0
 17 18  3  0
 16 19  1  0
  7 20  1  0
 20 21  1  0
 21  4  1  0
 19  9  1  0
 19 13  2  0
M  END
>  <Compound_ID>  (44) 
CHEMBL3353184

>  <Molecule Name>  (44) 
nan

>  <Molecular Weight>  (44) 
284.37

>  <AlogP>  (44) 
2.11

>  <Smiles>  (44) 
CN(C)[C@H]1CC[C@H](Nc2ncnc3[nH]cc(C#N)c23)CC1

>  <Standard Type>  (44) 
IC50

>  <Standard Relation>  (44) 
'='

>  <Standard Units>  (44) 
nM

>  <Standard Value>  (44) 
100.0

>  <Assay ChEMBL ID>  (44) 
CHEMBL3380178

>  <Assay Description>  (44) 
Inhibition of N-terminal GST-fused full-length human IRAK4 (1 to 460 amino acids) assessed as reduction in phosphorylated substrates by Caliper assay

>  <BAO Format ID>  (44) 
BAO_0000357

>  <BAO Label>  (44) 
single protein format

>  <Assay Organism>  (44) 
Homo sapiens

>  <Target ChEMBL ID>  (44) 
CHEMBL3778

>  <Target Name>  (44) 
Interleukin-1 receptor-associated kinase 4

>  <Target Organism>  (44) 
Homo sapiens

>  <Target Type>  (44) 
SINGLE PROTEIN

>  <Document ChEMBL ID>  (44) 
CHEMBL3351266

>  <Source Description>  (44) 
Scientific Literature

>  <Document Journal>  (44) 
J Med Chem

>  <Document Year>  (44) 
2015.0

>  <Active>  (44) 
1.0

>  <bits>  (44) 
<rdkit.DataStructs.cDataStructs.ExplicitBitVect object at 0x000001D1B3CFCBA0>

>  <Group>  (44) 
G1

$$$$

     RDKit          2D

 36 40  0  0  0  0  0  0  0  0999 V2000
    2.5981   -5.1073    0.0000 O   0  0  0  0  0  0  0  0  0  0  0  0
    1.2990   -5.8573    0.0000 C   0  0  0  0  0  0  0  0  0  0  0  0
   -0.0000   -5.1073    0.0000 N   0  0  0  0  0  0  0  0  0  0  0  0
   -0.0000   -3.6073    0.0000 C   0  0  0  0  0  0  0  0  0  0  0  0
    1.2135   -2.7256    0.0000 N   0  0  0  0  0  0  0  0  0  0  0  0
    0.7500   -1.2990    0.0000 C   0  0  0  0  0  0  0  0  0  0  0  0
    1.5000    0.0000    0.0000 C   0  0  0  0  0  0  0  0  0  0  0  0
    0.7500    1.2990    0.0000 C   0  0  0  0  0  0  0  0  0  0  0  0
    1.5000    2.5981    0.0000 C   0  0  0  0  0  0  0  0  0  0  0  0
    3.0000    2.5981    0.0000 N   0  0  0  0  0  0  0  0  0  0  0  0
    3.7500    1.2990    0.0000 C   0  0  0  0  0  0  0  0  0  0  0  0
    5.2500    1.2990    0.0000 C   0  0  0  0  0  0  0  0  0  0  0  0
    6.0000    2.5981    0.0000 C   0  0  0  0  0  0  0  0  0  0  0  0
    5.2500    3.8971    0.0000 C   0  0  0  0  0  0  0  0  0  0  0  0
    3.7500    3.8971    0.0000 C   0  0  0  0  0  0  0  0  0  0  0  0
   -0.7500    1.2990    0.0000 C   0  0  0  0  0  0  0  0  0  0  0  0
   -1.5000    0.0000    0.0000 C   0  0  0  0  0  0  0  0  0  0  0  0
   -0.7500   -1.2990    0.0000 C   0  0  0  0  0  0  0  0  0  0  0  0
   -1.2135   -2.7256    0.0000 N   0  0  0  0  0  0  0  0  0  0  0  0
   -2.6401   -3.1891    0.0000 C   0  0  0  0  0  0  0  0  0  0  0  0
   -3.7548   -2.1855    0.0000 C   0  0  0  0  0  0  0  0  0  0  0  0
   -5.1814   -2.6490    0.0000 C   0  0  0  0  0  0  0  0  0  0  0  0
   -5.4933   -4.1162    0.0000 C   0  0  0  0  0  0  0  0  0  0  0  0
   -6.9199   -4.5797    0.0000 C   0  0  0  0  0  0  0  0  0  0  0  0
   -8.0346   -3.5760    0.0000 O   0  0  0  0  0  0  0  0  0  0  0  0
   -4.3786   -5.1199    0.0000 C   0  0  0  0  0  0  0  0  0  0  0  0
   -2.9520   -4.6564    0.0000 C   0  0  0  0  0  0  0  0  0  0  0  0
    1.2990   -7.3573    0.0000 C   0  0  0  0  0  0  0  0  0  0  0  0
    2.5981   -8.1073    0.0000 C   0  0  0  0  0  0  0  0  0  0  0  0
    2.5981   -9.6073    0.0000 C   0  0  0  0  0  0  0  0  0  0  0  0
    1.2990  -10.3573    0.0000 C   0  0  0  0  0  0  0  0  0  0  0  0
    0.0000   -9.6073    0.0000 C   0  0  0  0  0  0  0  0  0  0  0  0
   -1.2990  -10.3573    0.0000 N   0  0  0  0  0  4  0  0  0  0  0  0
   -2.5981   -9.6073    0.0000 O   0  0  0  0  0  0  0  0  0  0  0  0
   -1.2990  -11.8573    0.0000 O   0  0  0  0  0  1  0  0  0  0  0  0
    0.0000   -8.1073    0.0000 C   0  0  0  0  0  0  0  0  0  0  0  0
  1  2  2  0
  2  3  1  0
  3  4  1  0
  4  5  2  0
  5  6  1  0
  6  7  2  0
  7  8  1  0
  8  9  1  0
  9 10  1  0
 10 11  1  0
 11 12  1  0
 12 13  1  0
 13 14  1  0
 14 15  1  0
  8 16  2  0
 16 17  1  0
 17 18  2  0
 18 19  1  0
 20 19  1  6
 20 21  1  0
 21 22  1  0
 22 23  1  0
 23 24  1  6
 24 25  1  0
 23 26  1  0
 26 27  1  0
  2 28  1  0
 28 29  2  0
 29 30  1  0
 30 31  2  0
 31 32  1  0
 32 33  1  0
 33 34  2  0
 33 35  1  0
 32 36  2  0
 19  4  1  0
 27 20  1  0
 36 28  1  0
 18  6  1  0
 15 10  1  0
M  CHG  2  33   1  35  -1
M  END
>  <Compound_ID>  (45) 
CHEMBL3734854

>  <Molecule Name>  (45) 
nan

>  <Molecular Weight>  (45) 
491.59

>  <AlogP>  (45) 
4.91

>  <Smiles>  (45) 
O=C(Nc1nc2cc(CN3CCCCC3)ccc2n1[C@H]1CC[C@@H](CO)CC1)c1cccc([N+](=O)[O-])c1

>  <Standard Type>  (45) 
Ki

>  <Standard Relation>  (45) 
'='

>  <Standard Units>  (45) 
nM

>  <Standard Value>  (45) 
0.7

>  <Assay ChEMBL ID>  (45) 
CHEMBL3737182

>  <Assay Description>  (45) 
Inhibition of recombinant full length IRAK-4 (unknown origin) using the biotinylated substrate RRRVTSPARRS by chemiluminescent ELISA

>  <BAO Format ID>  (45) 
BAO_0000357

>  <BAO Label>  (45) 
single protein format

>  <Assay Organism>  (45) 
Homo sapiens

>  <Target ChEMBL ID>  (45) 
CHEMBL3778

>  <Target Name>  (45) 
Interleukin-1 receptor-associated kinase 4

>  <Target Organism>  (45) 
Homo sapiens

>  <Target Type>  (45) 
SINGLE PROTEIN

>  <Document ChEMBL ID>  (45) 
CHEMBL3734693

>  <Source Description>  (45) 
Scientific Literature

>  <Document Journal>  (45) 
Bioorg Med Chem Lett

>  <Document Year>  (45) 
2015.0

>  <Active>  (45) 
1.0

>  <bits>  (45) 
<rdkit.DataStructs.cDataStructs.ExplicitBitVect object at 0x000001D1B3CFCC10>

>  <Group>  (45) 
G1

$$$$

     RDKit          2D

 40 45  0  0  0  0  0  0  0  0999 V2000
  -12.8032    7.8525    0.0000 C   0  0  0  0  0  0  0  0  0  0  0  0
  -11.3766    8.3160    0.0000 N   0  0  0  0  0  0  0  0  0  0  0  0
  -10.2619    7.3123    0.0000 C   0  0  0  0  0  0  0  0  0  0  0  0
  -10.5738    5.8451    0.0000 O   0  0  0  0  0  0  0  0  0  0  0  0
   -8.8353    7.7759    0.0000 C   0  0  0  0  0  0  0  0  0  0  0  0
   -7.7206    6.7722    0.0000 C   0  0  0  0  0  0  0  0  0  0  0  0
   -6.2940    7.2357    0.0000 C   0  0  0  0  0  0  0  0  0  0  0  0
   -5.9821    8.7029    0.0000 C   0  0  0  0  0  0  0  0  0  0  0  0
   -4.5556    9.1664    0.0000 N   0  0  0  0  0  0  0  0  0  0  0  0
   -3.4408    8.1628    0.0000 C   0  0  0  0  0  0  0  0  0  0  0  0
   -3.7527    6.6955    0.0000 C   0  0  0  0  0  0  0  0  0  0  0  0
   -2.6380    5.6918    0.0000 C   0  0  0  0  0  0  0  0  0  0  0  0
   -2.9499    4.2246    0.0000 N   0  0  0  0  0  0  0  0  0  0  0  0
   -1.8351    3.2209    0.0000 C   0  0  0  0  0  0  0  0  0  0  0  0
   -0.4086    3.6844    0.0000 C   0  0  0  0  0  0  0  0  0  0  0  0
    0.7062    2.6807    0.0000 C   0  0  0  0  0  0  0  0  0  0  0  0
    0.3943    1.2135    0.0000 C   0  0  0  0  0  0  0  0  0  0  0  0
    1.2760    0.0000    0.0000 N   0  0  0  0  0  0  0  0  0  0  0  0
    0.3943   -1.2135    0.0000 C   0  0  0  0  0  0  0  0  0  0  0  0
   -1.0323   -0.7500    0.0000 S   0  0  0  0  0  0  0  0  0  0  0  0
   -1.0323    0.7500    0.0000 C   0  0  0  0  0  0  0  0  0  0  0  0
   -2.1470    1.7537    0.0000 C   0  0  0  0  0  0  0  0  0  0  0  0
   -1.2114    6.1554    0.0000 N   0  0  0  0  0  0  0  0  0  0  0  0
   -0.8995    7.6226    0.0000 C   0  0  0  0  0  0  0  0  0  0  0  0
   -2.0143    8.6263    0.0000 C   0  0  0  0  0  0  0  0  0  0  0  0
   -1.7024   10.0935    0.0000 C   0  0  0  0  0  0  0  0  0  0  0  0
   -2.7061   11.2082    0.0000 N   0  0  0  0  0  0  0  0  0  0  0  0
   -1.9561   12.5073    0.0000 N   0  0  0  0  0  0  0  0  0  0  0  0
   -0.4889   12.1954    0.0000 C   0  0  0  0  0  0  0  0  0  0  0  0
    0.6259   13.1991    0.0000 C   0  0  0  0  0  0  0  0  0  0  0  0
    0.3140   14.6663    0.0000 O   0  0  0  0  0  0  0  0  0  0  0  0
    2.0524   12.7356    0.0000 N   0  0  0  0  0  0  0  0  0  0  0  0
    3.2660   13.6172    0.0000 C   0  0  0  0  0  0  0  0  0  0  0  0
    4.4795   12.7356    0.0000 C   0  0  0  0  0  0  0  0  0  0  0  0
    4.0160   11.3090    0.0000 C   0  0  0  0  0  0  0  0  0  0  0  0
    4.8976   10.0954    0.0000 O   0  0  0  0  0  0  0  0  0  0  0  0
    2.5160   11.3090    0.0000 C   0  0  0  0  0  0  0  0  0  0  0  0
   -0.3321   10.7036    0.0000 S   0  0  0  0  0  0  0  0  0  0  0  0
   -7.0969    9.7066    0.0000 C   0  0  0  0  0  0  0  0  0  0  0  0
   -8.5234    9.2431    0.0000 C   0  0  0  0  0  0  0  0  0  0  0  0
  1  2  1  0
  2  3  1  0
  3  4  2  0
  3  5  1  0
  5  6  2  0
  6  7  1  0
  7  8  2  0
  8  9  1  0
  9 10  1  0
 10 11  2  0
 11 12  1  0
 12 13  1  0
 13 14  1  0
 14 15  2  0
 15 16  1  0
 16 17  2  0
 17 18  1  0
 18 19  2  0
 19 20  1  0
 20 21  1  0
 21 22  2  0
 12 23  2  0
 23 24  1  0
 24 25  2  0
 25 26  1  0
 26 27  2  0
 27 28  1  0
 28 29  2  0
 29 30  1  0
 30 31  2  0
 30 32  1  0
 32 33  1  0
 33 34  1  0
 34 35  1  0
 35 36  1  1
 35 37  1  0
 29 38  1  0
  8 39  1  0
 39 40  2  0
 40  5  1  0
 25 10  1  0
 38 26  1  0
 22 14  1  0
 37 32  1  0
 21 17  1  0
M  END
>  <Compound_ID>  (46) 
CHEMBL3935695

>  <Molecule Name>  (46) 
nan

>  <Molecular Weight>  (46) 
572.68

>  <AlogP>  (46) 
4.26

>  <Smiles>  (46) 
CNC(=O)c1ccc(Nc2cc(Nc3ccc4ncsc4c3)ncc2-c2nnc(C(=O)N3CC[C@@H](O)C3)s2)cc1

>  <Standard Type>  (46) 
IC50

>  <Standard Relation>  (46) 
'='

>  <Standard Units>  (46) 
nM

>  <Standard Value>  (46) 
3.2

>  <Assay ChEMBL ID>  (46) 
CHEMBL3887888

>  <Assay Description>  (46) 
IRAK4 Inhibition Assay: The assays were performed in U-bottom 384-well plates. The final assay volume was 30 μL prepared from 15 μL additions of enzyme and substrates (fluoresceinated peptide and ATP) and test compounds in assay buffer (20 mM HEPES pH 7.2, 10 mM MgCl2, 0.015% Brij35 and 4 mM DTT). The reaction was initiated by the combination of IRAK4 with substrates and test compounds. The reaction was incubated at room temperature for 60 min. and terminated by adding 45 μL of 35 mM EDTA to each sample. The reaction mixture was analyzed on the Caliper LabChip 3000 (Caliper, Hopkinton, Mass.) by electrophoretic separation of the fluorescent substrate and phosphorylated product. Inhibition data were calculated by comparison to no enzyme control reactions for 100% inhibition and vehicle-only reactions for 0% inhibition. The final concentrations of reagents in the assays are ATP, 500 μM; FL-IPTSPITTTYFFFKKK peptide 1.5 μM; IRAK4, 0.6 nM; and DMSO, 1.6%.

>  <BAO Format ID>  (46) 
BAO_0000357

>  <BAO Label>  (46) 
single protein format

>  <Assay Organism>  (46) 
Homo sapiens

>  <Target ChEMBL ID>  (46) 
CHEMBL3778

>  <Target Name>  (46) 
Interleukin-1 receptor-associated kinase 4

>  <Target Organism>  (46) 
Homo sapiens

>  <Target Type>  (46) 
SINGLE PROTEIN

>  <Document ChEMBL ID>  (46) 
CHEMBL3886488

>  <Source Description>  (46) 
BindingDB Database

>  <Document Journal>  (46) 
nan

>  <Document Year>  (46) 
2016.0

>  <Active>  (46) 
1.0

>  <bits>  (46) 
<rdkit.DataStructs.cDataStructs.ExplicitBitVect object at 0x000001D1B3CFCC80>

>  <Group>  (46) 
G1

$$$$

     RDKit          2D

 30 32  0  0  0  0  0  0  0  0999 V2000
    5.7760   -2.5981    0.0000 C   0  0  0  0  0  0  0  0  0  0  0  0
    5.0260   -1.2990    0.0000 N   0  0  0  0  0  0  0  0  0  0  0  0
    5.7760    0.0000    0.0000 C   0  0  0  0  0  0  0  0  0  0  0  0
    3.5260   -1.2990    0.0000 C   0  0  0  0  0  0  0  0  0  0  0  0
    2.7760    0.0000    0.0000 C   0  0  0  0  0  0  0  0  0  0  0  0
    1.2760    0.0000    0.0000 N   0  0  0  0  0  0  0  0  0  0  0  0
    0.3943    1.2135    0.0000 C   0  0  0  0  0  0  0  0  0  0  0  0
   -1.0323    0.7500    0.0000 C   0  0  0  0  0  0  0  0  0  0  0  0
   -2.3313    1.5000    0.0000 C   0  0  0  0  0  0  0  0  0  0  0  0
   -3.6304    0.7500    0.0000 C   0  0  0  0  0  0  0  0  0  0  0  0
   -4.9294    1.5000    0.0000 N   0  0  0  0  0  0  0  0  0  0  0  0
   -4.9294    3.0000    0.0000 C   0  0  0  0  0  0  0  0  0  0  0  0
   -3.6304    3.7500    0.0000 O   0  0  0  0  0  0  0  0  0  0  0  0
   -6.2284    3.7500    0.0000 C   0  0  0  0  0  0  0  0  0  0  0  0
   -7.5988    3.1399    0.0000 N   0  0  0  0  0  0  0  0  0  0  0  0
   -8.6025    4.2546    0.0000 C   0  0  0  0  0  0  0  0  0  0  0  0
  -10.0942    4.0978    0.0000 C   0  0  0  0  0  0  0  0  0  0  0  0
  -11.5860    3.9410    0.0000 F   0  0  0  0  0  0  0  0  0  0  0  0
  -10.2510    5.5896    0.0000 F   0  0  0  0  0  0  0  0  0  0  0  0
   -9.9374    2.6060    0.0000 F   0  0  0  0  0  0  0  0  0  0  0  0
   -7.8525    5.5537    0.0000 C   0  0  0  0  0  0  0  0  0  0  0  0
   -6.3852    5.2418    0.0000 S   0  0  0  0  0  0  0  0  0  0  0  0
   -3.6304   -0.7500    0.0000 C   0  0  0  0  0  0  0  0  0  0  0  0
   -4.9294   -1.5000    0.0000 C   0  0  0  0  0  0  0  0  0  0  0  0
   -4.1794   -2.7990    0.0000 C   0  0  0  0  0  0  0  0  0  0  0  0
   -5.6794   -0.2010    0.0000 C   0  0  0  0  0  0  0  0  0  0  0  0
   -6.2284   -2.2500    0.0000 O   0  0  0  0  0  0  0  0  0  0  0  0
   -2.3313   -1.5000    0.0000 C   0  0  0  0  0  0  0  0  0  0  0  0
   -1.0323   -0.7500    0.0000 C   0  0  0  0  0  0  0  0  0  0  0  0
    0.3943   -1.2135    0.0000 N   0  0  0  0  0  0  0  0  0  0  0  0
  1  2  1  0
  2  3  1  0
  2  4  1  0
  4  5  1  0
  5  6  1  0
  6  7  1  0
  7  8  2  0
  8  9  1  0
  9 10  2  0
 10 11  1  0
 11 12  1  0
 12 13  2  0
 12 14  1  0
 14 15  2  0
 15 16  1  0
 16 17  1  0
 17 18  1  0
 17 19  1  0
 17 20  1  0
 16 21  2  0
 21 22  1  0
 10 23  1  0
 23 24  1  0
 24 25  1  0
 24 26  1  0
 24 27  1  0
 23 28  2  0
 28 29  1  0
 29 30  2  0
 30  6  1  0
 29  8  1  0
 22 14  1  0
M  END
>  <Compound_ID>  (47) 
CHEMBL4754306

>  <Molecule Name>  (47) 
nan

>  <Molecular Weight>  (47) 
441.48

>  <AlogP>  (47) 
3.55

>  <Smiles>  (47) 
CN(C)CCn1cc2cc(NC(=O)c3nc(C(F)(F)F)cs3)c(C(C)(C)O)cc2n1

>  <Standard Type>  (47) 
IC50

>  <Standard Relation>  (47) 
'='

>  <Standard Units>  (47) 
nM

>  <Standard Value>  (47) 
34.8

>  <Assay ChEMBL ID>  (47) 
CHEMBL4678083

>  <Assay Description>  (47) 
Inhibition of IRAK4 (unknown origin)

>  <BAO Format ID>  (47) 
BAO_0000357

>  <BAO Label>  (47) 
single protein format

>  <Assay Organism>  (47) 
Homo sapiens

>  <Target ChEMBL ID>  (47) 
CHEMBL3778

>  <Target Name>  (47) 
Interleukin-1 receptor-associated kinase 4

>  <Target Organism>  (47) 
Homo sapiens

>  <Target Type>  (47) 
SINGLE PROTEIN

>  <Document ChEMBL ID>  (47) 
CHEMBL4673322

>  <Source Description>  (47) 
Scientific Literature

>  <Document Journal>  (47) 
Bioorg Med Chem Lett

>  <Document Year>  (47) 
2021.0

>  <Active>  (47) 
1.0

>  <bits>  (47) 
<rdkit.DataStructs.cDataStructs.ExplicitBitVect object at 0x000001D1B3CFCCF0>

>  <Group>  (47) 
G1

$$$$

     RDKit          2D

 30 33  0  0  0  0  0  0  0  0999 V2000
   -3.2463  -11.5615    0.0000 C   0  0  0  0  0  0  0  0  0  0  0  0
   -4.7381  -11.4047    0.0000 C   0  0  0  0  0  0  0  0  0  0  0  0
   -6.2299  -11.2480    0.0000 C   0  0  0  0  0  0  0  0  0  0  0  0
   -4.8949  -12.8965    0.0000 O   0  0  0  0  0  0  0  0  0  0  0  0
   -4.5813   -9.9130    0.0000 C   0  0  0  0  0  0  0  0  0  0  0  0
   -5.7949   -9.0313    0.0000 F   0  0  0  0  0  0  0  0  0  0  0  0
   -3.2110   -9.3029    0.0000 C   0  0  0  0  0  0  0  0  0  0  0  0
   -3.0542   -7.8111    0.0000 N   0  0  0  0  0  0  0  0  0  0  0  0
   -1.6839   -7.2010    0.0000 C   0  0  0  0  0  0  0  0  0  0  0  0
   -0.4704   -8.0826    0.0000 O   0  0  0  0  0  0  0  0  0  0  0  0
   -1.5271   -5.7092    0.0000 C   0  0  0  0  0  0  0  0  0  0  0  0
   -2.7406   -4.8275    0.0000 C   0  0  0  0  0  0  0  0  0  0  0  0
   -2.5838   -3.3357    0.0000 N   0  0  0  0  0  0  0  0  0  0  0  0
   -1.2135   -2.7256    0.0000 C   0  0  0  0  0  0  0  0  0  0  0  0
   -0.0000   -3.6073    0.0000 C   0  0  0  0  0  0  0  0  0  0  0  0
    1.2135   -2.7256    0.0000 N   0  0  0  0  0  0  0  0  0  0  0  0
    0.7500   -1.2990    0.0000 C   0  0  0  0  0  0  0  0  0  0  0  0
    1.5000    0.0000    0.0000 C   0  0  0  0  0  0  0  0  0  0  0  0
    0.7500    1.2990    0.0000 C   0  0  0  0  0  0  0  0  0  0  0  0
    1.5000    2.5981    0.0000 C   0  0  0  0  0  0  0  0  0  0  0  0
    2.2500    3.8971    0.0000 N   0  0  0  0  0  0  0  0  0  0  0  0
   -0.7500    1.2990    0.0000 C   0  0  0  0  0  0  0  0  0  0  0  0
   -1.5000    0.0000    0.0000 C   0  0  0  0  0  0  0  0  0  0  0  0
   -0.7500   -1.2990    0.0000 C   0  0  0  0  0  0  0  0  0  0  0  0
   -0.1568   -5.0991    0.0000 C   0  0  0  0  0  0  0  0  0  0  0  0
    1.0567   -5.9808    0.0000 N   0  0  0  0  0  0  0  0  0  0  0  0
    2.4271   -5.3707    0.0000 C   0  0  0  0  0  0  0  0  0  0  0  0
    3.8274   -5.9082    0.0000 C   0  0  0  0  0  0  0  0  0  0  0  0
    4.3650   -4.5078    0.0000 C   0  0  0  0  0  0  0  0  0  0  0  0
    2.9646   -3.9703    0.0000 C   0  0  0  0  0  0  0  0  0  0  0  0
  1  2  1  0
  2  3  1  0
  2  4  1  0
  2  5  1  0
  5  6  1  6
  5  7  1  0
  7  8  1  0
  8  9  1  0
  9 10  2  0
  9 11  1  0
 11 12  2  0
 12 13  1  0
 13 14  2  0
 14 15  1  0
 15 16  1  0
 16 17  1  0
 17 18  2  0
 18 19  1  0
 19 20  1  0
 20 21  3  0
 19 22  2  0
 22 23  1  0
 23 24  2  0
 15 25  2  0
 25 26  1  0
 26 27  1  0
 27 28  1  0
 28 29  1  0
 29 30  1  0
 25 11  1  0
 30 27  1  0
 24 14  1  0
 24 17  1  0
M  END
>  <Compound_ID>  (48) 
CHEMBL5094956

>  <Molecule Name>  (48) 
nan

>  <Molecular Weight>  (48) 
409.47

>  <AlogP>  (48) 
3.39

>  <Smiles>  (48) 
CC(C)(O)[C@H](F)CNC(=O)c1cnc2c([nH]c3cc(C#N)ccc32)c1NC1CCC1

>  <Standard Type>  (48) 
IC50

>  <Standard Relation>  (48) 
'='

>  <Standard Units>  (48) 
nM

>  <Standard Value>  (48) 
2.0

>  <Assay ChEMBL ID>  (48) 
CHEMBL5042338

>  <Assay Description>  (48) 
Inhibition of IRAK4 (unknown origin) using FL- IPTSPITTTYFFFKKK peptide as substrate in presence of ATP incubated for 60 mins by fluorescence assay

>  <BAO Format ID>  (48) 
BAO_0000357

>  <BAO Label>  (48) 
single protein format

>  <Assay Organism>  (48) 
Homo sapiens

>  <Target ChEMBL ID>  (48) 
CHEMBL3778

>  <Target Name>  (48) 
Interleukin-1 receptor-associated kinase 4

>  <Target Organism>  (48) 
Homo sapiens

>  <Target Type>  (48) 
SINGLE PROTEIN

>  <Document ChEMBL ID>  (48) 
CHEMBL5038673

>  <Source Description>  (48) 
Scientific Literature

>  <Document Journal>  (48) 
ACS Med Chem Lett

>  <Document Year>  (48) 
2022.0

>  <Active>  (48) 
1.0

>  <bits>  (48) 
<rdkit.DataStructs.cDataStructs.ExplicitBitVect object at 0x000001D1B3CFCD60>

>  <Group>  (48) 
G1

$$$$

     RDKit          2D

 34 38  0  0  0  0  0  0  0  0999 V2000
   -1.9635   -4.0247    0.0000 C   0  0  0  0  0  0  0  0  0  0  0  0
   -1.2135   -2.7256    0.0000 C   0  0  0  0  0  0  0  0  0  0  0  0
   -2.5838   -2.1155    0.0000 C   0  0  0  0  0  0  0  0  0  0  0  0
   -0.0000   -3.6073    0.0000 O   0  0  0  0  0  0  0  0  0  0  0  0
    1.2135   -2.7256    0.0000 C   0  0  0  0  0  0  0  0  0  0  0  0
    2.6401   -3.1891    0.0000 O   0  0  0  0  0  0  0  0  0  0  0  0
    0.7500   -1.2990    0.0000 C   0  0  0  0  0  0  0  0  0  0  0  0
    1.5000    0.0000    0.0000 C   0  0  0  0  0  0  0  0  0  0  0  0
    0.7500    1.2990    0.0000 C   0  0  0  0  0  0  0  0  0  0  0  0
   -0.7500    1.2990    0.0000 C   0  0  0  0  0  0  0  0  0  0  0  0
   -1.5000    2.5981    0.0000 N   0  0  0  0  0  0  0  0  0  0  0  0
   -0.7500    3.8971    0.0000 C   0  0  0  0  0  0  0  0  0  0  0  0
    0.7500    3.8971    0.0000 N   0  0  0  0  0  0  0  0  0  0  0  0
    1.5000    5.1962    0.0000 C   0  0  0  0  0  0  0  0  0  0  0  0
    0.7500    6.4952    0.0000 C   0  0  0  0  0  0  0  0  0  0  0  0
    1.5000    7.7942    0.0000 C   0  0  0  0  0  0  0  0  0  0  0  0
    0.8899    9.1645    0.0000 N   0  0  0  0  0  0  0  0  0  0  0  0
    2.0046   10.1682    0.0000 N   0  0  0  0  0  0  0  0  0  0  0  0
    3.3037    9.4182    0.0000 C   0  0  0  0  0  0  0  0  0  0  0  0
    2.9918    7.9510    0.0000 O   0  0  0  0  0  0  0  0  0  0  0  0
   -0.7500    6.4952    0.0000 C   0  0  0  0  0  0  0  0  0  0  0  0
   -1.5000    7.7942    0.0000 N   0  0  0  0  0  0  0  0  0  0  0  0
   -3.0000    7.7942    0.0000 C   0  0  0  0  0  0  0  0  0  0  0  0
   -3.7500    6.4952    0.0000 C   0  0  0  0  0  0  0  0  0  0  0  0
   -5.2500    6.4952    0.0000 O   0  0  0  0  0  0  0  0  0  0  0  0
   -3.7500    9.0933    0.0000 C   0  0  0  0  0  0  0  0  0  0  0  0
   -3.0000   10.3923    0.0000 C   0  0  0  0  0  0  0  0  0  0  0  0
   -3.7500   11.6913    0.0000 C   0  0  0  0  0  0  0  0  0  0  0  0
   -5.2500   11.6913    0.0000 C   0  0  0  0  0  0  0  0  0  0  0  0
   -6.0000   10.3923    0.0000 C   0  0  0  0  0  0  0  0  0  0  0  0
   -5.2500    9.0933    0.0000 C   0  0  0  0  0  0  0  0  0  0  0  0
   -1.5000    5.1962    0.0000 N   0  0  0  0  0  0  0  0  0  0  0  0
   -1.5000    0.0000    0.0000 C   0  0  0  0  0  0  0  0  0  0  0  0
   -0.7500   -1.2990    0.0000 C   0  0  0  0  0  0  0  0  0  0  0  0
  1  2  1  0
  2  3  1  0
  2  4  1  0
  4  5  1  0
  5  6  2  0
  5  7  1  0
  7  8  2  0
  8  9  1  0
  9 10  2  0
 10 11  1  0
 11 12  1  0
 12 13  2  0
 13 14  1  0
 14 15  2  0
 15 16  1  0
 16 17  2  0
 17 18  1  0
 18 19  2  0
 19 20  1  0
 15 21  1  0
 21 22  1  0
 22 23  1  0
 23 24  1  6
 24 25  1  0
 23 26  1  0
 26 27  2  0
 27 28  1  0
 28 29  2  0
 29 30  1  0
 30 31  2  0
 21 32  2  0
 10 33  1  0
 33 34  2  0
 34  2  1  0
 34  7  1  0
 32 12  1  0
 20 16  1  0
 31 26  1  0
M  END
>  <Compound_ID>  (49) 
CHEMBL4748154

>  <Molecule Name>  (49) 
nan

>  <Molecular Weight>  (49) 
458.48

>  <AlogP>  (49) 
3.82

>  <Smiles>  (49) 
CC1(C)OC(=O)c2ccc(Nc3ncc(-c4nnco4)c(N[C@H](CO)c4ccccc4)n3)cc21

>  <Standard Type>  (49) 
IC50

>  <Standard Relation>  (49) 
'='

>  <Standard Units>  (49) 
nM

>  <Standard Value>  (49) 
59.0

>  <Assay ChEMBL ID>  (49) 
CHEMBL4689491

>  <Assay Description>  (49) 
Inhibition of IRAK4 (unknown origin)

>  <BAO Format ID>  (49) 
BAO_0000357

>  <BAO Label>  (49) 
single protein format

>  <Assay Organism>  (49) 
Homo sapiens

>  <Target ChEMBL ID>  (49) 
CHEMBL3778

>  <Target Name>  (49) 
Interleukin-1 receptor-associated kinase 4

>  <Target Organism>  (49) 
Homo sapiens

>  <Target Type>  (49) 
SINGLE PROTEIN

>  <Document ChEMBL ID>  (49) 
CHEMBL4680358

>  <Source Description>  (49) 
Scientific Literature

>  <Document Journal>  (49) 
ACS Med Chem Lett

>  <Document Year>  (49) 
2021.0

>  <Active>  (49) 
1.0

>  <bits>  (49) 
<rdkit.DataStructs.cDataStructs.ExplicitBitVect object at 0x000001D1B3CFCDD0>

>  <Group>  (49) 
G1

$$$$

     RDKit          2D

 36 41  0  0  0  0  0  0  0  0999 V2000
   -4.1640    1.7626    0.0000 N   0  0  0  0  0  0  0  0  0  0  0  0
   -3.4140    0.4635    0.0000 C   0  0  0  0  0  0  0  0  0  0  0  0
   -4.1640   -0.8355    0.0000 O   0  0  0  0  0  0  0  0  0  0  0  0
   -1.9140    0.4635    0.0000 C   0  0  0  0  0  0  0  0  0  0  0  0
   -1.0323    1.6771    0.0000 C   0  0  0  0  0  0  0  0  0  0  0  0
   -1.4958    3.1036    0.0000 N   0  0  0  0  0  0  0  0  0  0  0  0
   -0.4921    4.2184    0.0000 C   0  0  0  0  0  0  0  0  0  0  0  0
    0.9751    3.9065    0.0000 N   0  0  0  0  0  0  0  0  0  0  0  0
    1.9788    5.0212    0.0000 C   0  0  0  0  0  0  0  0  0  0  0  0
    3.4460    4.7093    0.0000 N   0  0  0  0  0  0  0  0  0  0  0  0
    3.9095    3.2828    0.0000 C   0  0  0  0  0  0  0  0  0  0  0  0
    2.9059    2.1680    0.0000 C   0  0  0  0  0  0  0  0  0  0  0  0
    3.3694    0.7414    0.0000 C   0  0  0  0  0  0  0  0  0  0  0  0
    4.8366    0.4296    0.0000 C   0  0  0  0  0  0  0  0  0  0  0  0
    5.8403    1.5443    0.0000 C   0  0  0  0  0  0  0  0  0  0  0  0
    7.3075    1.2324    0.0000 C   0  0  0  0  0  0  0  0  0  0  0  0
    8.3112    2.3471    0.0000 O   0  0  0  0  0  0  0  0  0  0  0  0
    7.7710   -0.1942    0.0000 N   0  0  0  0  0  0  0  0  0  0  0  0
    9.1976   -0.6577    0.0000 C   0  0  0  0  0  0  0  0  0  0  0  0
    9.1976   -2.1577    0.0000 C   0  0  0  0  0  0  0  0  0  0  0  0
    7.7710   -2.6212    0.0000 C   0  0  0  0  0  0  0  0  0  0  0  0
    6.8894   -1.4077    0.0000 C   0  0  0  0  0  0  0  0  0  0  0  0
    5.3768    2.9709    0.0000 C   0  0  0  0  0  0  0  0  0  0  0  0
    1.5153    6.4478    0.0000 N   0  0  0  0  0  0  0  0  0  0  0  0
    0.0481    6.7597    0.0000 C   0  0  0  0  0  0  0  0  0  0  0  0
   -0.9556    5.6449    0.0000 C   0  0  0  0  0  0  0  0  0  0  0  0
   -2.4229    5.9568    0.0000 C   0  0  0  0  0  0  0  0  0  0  0  0
   -3.5376    4.9531    0.0000 C   0  0  0  0  0  0  0  0  0  0  0  0
   -4.8366    5.7031    0.0000 C   0  0  0  0  0  0  0  0  0  0  0  0
   -4.5248    7.1703    0.0000 S   0  0  0  0  0  0  0  0  0  0  0  0
   -3.0330    7.3271    0.0000 C   0  0  0  0  0  0  0  0  0  0  0  0
    0.3943    1.2135    0.0000 C   0  0  0  0  0  0  0  0  0  0  0  0
    1.2760    0.0000    0.0000 C   0  0  0  0  0  0  0  0  0  0  0  0
    0.3943   -1.2135    0.0000 C   0  0  0  0  0  0  0  0  0  0  0  0
   -1.0323   -0.7500    0.0000 C   0  0  0  0  0  0  0  0  0  0  0  0
   -1.0323    0.7500    0.0000 C   0  0  0  0  0  0  0  0  0  0  0  0
  1  2  1  0
  2  3  2  0
  4  2  1  6
  4  5  1  0
  5  6  1  6
  6  7  1  0
  7  8  2  0
  8  9  1  0
  9 10  1  0
 10 11  1  0
 11 12  2  0
 12 13  1  0
 13 14  2  0
 14 15  1  0
 15 16  1  0
 16 17  2  0
 16 18  1  0
 18 19  1  0
 19 20  1  0
 20 21  1  0
 21 22  1  0
 15 23  2  0
  9 24  2  0
 24 25  1  0
 25 26  2  0
 26 27  1  0
 27 28  1  0
 28 29  2  0
 29 30  1  0
 30 31  1  0
  5 32  1  0
 32 33  1  1
 33 34  2  0
 35 34  1  1
 35 36  1  0
 35  4  1  0
 26  7  1  0
 31 27  2  0
 36 32  1  0
 23 11  1  0
 22 18  1  0
M  END
>  <Compound_ID>  (50) 
CHEMBL5079990

>  <Molecule Name>  (50) 
nan

>  <Molecular Weight>  (50) 
500.63

>  <AlogP>  (50) 
4.27

>  <Smiles>  (50) 
NC(=O)[C@@H]1[C@H](Nc2nc(Nc3cccc(C(=O)N4CCCC4)c3)ncc2-c2ccsc2)[C@H]2C=C[C@@H]1C2

>  <Standard Type>  (50) 
IC50

>  <Standard Relation>  (50) 
'='

>  <Standard Units>  (50) 
nM

>  <Standard Value>  (50) 
5.0

>  <Assay ChEMBL ID>  (50) 
CHEMBL5038453

>  <Assay Description>  (50) 
Inhibition of IRAK4 (unknown origin) in presence of MBP as substrate by ADP-Glo assay

>  <BAO Format ID>  (50) 
BAO_0000357

>  <BAO Label>  (50) 
single protein format

>  <Assay Organism>  (50) 
Homo sapiens

>  <Target ChEMBL ID>  (50) 
CHEMBL3778

>  <Target Name>  (50) 
Interleukin-1 receptor-associated kinase 4

>  <Target Organism>  (50) 
Homo sapiens

>  <Target Type>  (50) 
SINGLE PROTEIN

>  <Document ChEMBL ID>  (50) 
CHEMBL5036378

>  <Source Description>  (50) 
Scientific Literature

>  <Document Journal>  (50) 
ACS Med Chem Lett

>  <Document Year>  (50) 
2022.0

>  <Active>  (50) 
1.0

>  <bits>  (50) 
<rdkit.DataStructs.cDataStructs.ExplicitBitVect object at 0x000001D1B3CFCE40>

>  <Group>  (50) 
G1

$$$$
