
     RDKit          2D

 28 30  0  0  0  0  0  0  0  0999 V2000
    3.0000    0.0000    0.0000 C   0  0  0  0  0  0  0  0  0  0  0  0
    1.5000    0.0000    0.0000 C   0  0  0  0  0  0  0  0  0  0  0  0
    0.7500   -1.2990    0.0000 C   0  0  0  0  0  0  0  0  0  0  0  0
   -0.7500   -1.2990    0.0000 C   0  0  0  0  0  0  0  0  0  0  0  0
   -1.5000   -2.5981    0.0000 N   0  0  0  0  0  0  0  0  0  0  0  0
   -3.0000   -2.5981    0.0000 C   0  0  0  0  0  0  0  0  0  0  0  0
   -3.7500   -1.2990    0.0000 N   0  0  0  0  0  0  0  0  0  0  0  0
   -5.2500   -1.2990    0.0000 C   0  0  0  0  0  0  0  0  0  0  0  0
   -6.0000   -2.5981    0.0000 C   0  0  0  0  0  0  0  0  0  0  0  0
   -5.2500   -3.8971    0.0000 C   0  0  0  0  0  0  0  0  0  0  0  0
   -6.0000   -5.1962    0.0000 C   0  0  0  0  0  0  0  0  0  0  0  0
   -6.7500   -6.4952    0.0000 F   0  0  0  0  0  0  0  0  0  0  0  0
   -7.2990   -4.4462    0.0000 F   0  0  0  0  0  0  0  0  0  0  0  0
   -4.7010   -5.9462    0.0000 F   0  0  0  0  0  0  0  0  0  0  0  0
   -3.7500   -3.8971    0.0000 N   0  0  0  0  0  0  0  0  0  0  0  0
   -1.5000    0.0000    0.0000 C   0  0  0  0  0  0  0  0  0  0  0  0
   -0.7500    1.2990    0.0000 C   0  0  0  0  0  0  0  0  0  0  0  0
   -1.5000    2.5981    0.0000 C   0  0  0  0  0  0  0  0  0  0  0  0
   -2.9918    2.7549    0.0000 C   0  0  0  0  0  0  0  0  0  0  0  0
   -3.3037    4.2221    0.0000 N   0  0  0  0  0  0  0  0  0  0  0  0
   -2.0046    4.9721    0.0000 C   0  0  0  0  0  0  0  0  0  0  0  0
   -1.8478    6.4639    0.0000 C   0  0  0  0  0  0  0  0  0  0  0  0
   -0.4775    7.0740    0.0000 C   0  0  0  0  0  0  0  0  0  0  0  0
   -0.3207    8.5658    0.0000 C   0  0  0  0  0  0  0  0  0  0  0  0
   -1.5342    9.4474    0.0000 O   0  0  0  0  0  0  0  0  0  0  0  0
    1.0496    9.1759    0.0000 O   0  0  0  0  0  0  0  0  0  0  0  0
   -0.8899    3.9684    0.0000 S   0  0  0  0  0  0  0  0  0  0  0  0
    0.7500    1.2990    0.0000 C   0  0  0  0  0  0  0  0  0  0  0  0
  1  2  1  0
  2  3  2  0
  3  4  1  0
  4  5  1  0
  5  6  1  0
  6  7  2  0
  7  8  1  0
  8  9  2  0
  9 10  1  0
 10 11  1  0
 11 12  1  0
 11 13  1  0
 11 14  1  0
 10 15  2  0
  4 16  2  0
 16 17  1  0
 17 18  1  0
 18 19  2  0
 19 20  1  0
 20 21  2  0
 21 22  1  0
 22 23  1  0
 23 24  1  0
 24 25  2  0
 24 26  1  0
 21 27  1  0
 17 28  2  0
 28  2  1  0
 15  6  1  0
 27 18  1  0
M  END
>  <Compound_ID>  (1) 
CHEMBL3685807

>  <Molecule Name>  (1) 
nan

>  <Molecular Weight>  (1) 
408.41

>  <AlogP>  (1) 
4.69

>  <Smiles>  (1) 
Cc1cc(Nc2nccc(C(F)(F)F)n2)cc(-c2cnc(CCC(=O)O)s2)c1

>  <Standard Type>  (1) 
IC50

>  <Standard Relation>  (1) 
'='

>  <Standard Units>  (1) 
nM

>  <Standard Value>  (1) 
3.0

>  <Assay ChEMBL ID>  (1) 
CHEMBL3705225

>  <Assay Description>  (1) 
Homogeneous Time-Resolved Fluorescence (HTRF) Assay : A recombinant GST-hSYK fusion protein was used to measure potency of compounds to inhibit human SYK activity. The recombinant human GST-SYK (Carna Biosciences #08-176) (5 pM final concentration) was incubated with various concentrations of the inhibitor diluted in DMSO (0.1% final concentration) for 10 minutes at room temperature in 15 mM Tris-HCl (pH 7.5), 0.01% tween 20, 2 mM DTT in 384 well plate format. To initiate the reaction the biotinylated substrate peptide (250 nM final concentration) that contains the phosphorylation site for SYK was added with magnesium (5 mM final concentration) and ATP (25 μM final concentration). Final volume of the reaction was 10 μL. Phosphorylation of the peptide was allowed to proceed for 45′ at room temperature.

>  <BAO Format ID>  (1) 
BAO_0000357

>  <BAO Label>  (1) 
single protein format

>  <Assay Organism>  (1) 
Homo sapiens

>  <Target ChEMBL ID>  (1) 
CHEMBL2599

>  <Target Name>  (1) 
Tyrosine-protein kinase SYK

>  <Target Organism>  (1) 
Homo sapiens

>  <Target Type>  (1) 
SINGLE PROTEIN

>  <Document ChEMBL ID>  (1) 
CHEMBL3639355

>  <Source Description>  (1) 
BindingDB Database

>  <Document Journal>  (1) 
nan

>  <Document Year>  (1) 
2014.0

>  <Active>  (1) 
1.0

>  <bits>  (1) 
<rdkit.DataStructs.cDataStructs.ExplicitBitVect object at 0x00000193F3455D20>

>  <Group>  (1) 
G2

$$$$

     RDKit          2D

 26 28  0  0  0  0  0  0  0  0999 V2000
    3.7500    1.2990    0.0000 O   0  0  0  0  0  0  0  0  0  0  0  0
    3.0000    0.0000    0.0000 C   0  0  0  0  0  0  0  0  0  0  0  0
    3.7500   -1.2990    0.0000 O   0  0  0  0  0  0  0  0  0  0  0  0
    1.5000    0.0000    0.0000 C   0  0  0  0  0  0  0  0  0  0  0  0
    0.7500   -1.2990    0.0000 C   0  0  0  0  0  0  0  0  0  0  0  0
   -0.7500   -1.2990    0.0000 C   0  0  0  0  0  0  0  0  0  0  0  0
   -1.5000    0.0000    0.0000 C   0  0  0  0  0  0  0  0  0  0  0  0
   -0.7500    1.2990    0.0000 C   0  0  0  0  0  0  0  0  0  0  0  0
   -1.5000    2.5981    0.0000 C   0  0  0  0  0  0  0  0  0  0  0  0
   -0.7500    3.8971    0.0000 C   0  0  0  0  0  0  0  0  0  0  0  0
   -1.5000    5.1962    0.0000 C   0  0  0  0  0  0  0  0  0  0  0  0
   -3.0000    5.1962    0.0000 C   0  0  0  0  0  0  0  0  0  0  0  0
   -3.7500    3.8971    0.0000 C   0  0  0  0  0  0  0  0  0  0  0  0
   -5.2500    3.8971    0.0000 N   0  0  0  0  0  0  0  0  0  0  0  0
   -6.0000    5.1962    0.0000 C   0  0  0  0  0  0  0  0  0  0  0  0
   -5.2500    6.4952    0.0000 N   0  0  0  0  0  0  0  0  0  0  0  0
   -6.0000    7.7942    0.0000 C   0  0  0  0  0  0  0  0  0  0  0  0
   -7.5000    7.7942    0.0000 C   0  0  0  0  0  0  0  0  0  0  0  0
   -8.2500    6.4952    0.0000 C   0  0  0  0  0  0  0  0  0  0  0  0
   -9.7500    6.4952    0.0000 C   0  0  0  0  0  0  0  0  0  0  0  0
  -11.2500    6.4952    0.0000 F   0  0  0  0  0  0  0  0  0  0  0  0
   -9.7500    7.9952    0.0000 F   0  0  0  0  0  0  0  0  0  0  0  0
   -9.7500    4.9952    0.0000 F   0  0  0  0  0  0  0  0  0  0  0  0
   -7.5000    5.1962    0.0000 N   0  0  0  0  0  0  0  0  0  0  0  0
   -3.0000    2.5981    0.0000 C   0  0  0  0  0  0  0  0  0  0  0  0
    0.7500    1.2990    0.0000 C   0  0  0  0  0  0  0  0  0  0  0  0
  1  2  2  0
  2  3  1  0
  2  4  1  0
  4  5  2  0
  5  6  1  0
  6  7  2  0
  7  8  1  0
  8  9  1  0
  9 10  2  0
 10 11  1  0
 11 12  2  0
 12 13  1  0
 13 14  1  0
 14 15  1  0
 15 16  2  0
 16 17  1  0
 17 18  2  0
 18 19  1  0
 19 20  1  0
 20 21  1  0
 20 22  1  0
 20 23  1  0
 19 24  2  0
 13 25  2  0
  8 26  2  0
 26  4  1  0
 25  9  1  0
 24 15  1  0
M  END
>  <Compound_ID>  (2) 
CHEMBL3943163

>  <Molecule Name>  (2) 
nan

>  <Molecular Weight>  (2) 
359.31

>  <AlogP>  (2) 
4.60

>  <Smiles>  (2) 
O=C(O)c1cccc(-c2cccc(Nc3nccc(C(F)(F)F)n3)c2)c1

>  <Standard Type>  (2) 
IC50

>  <Standard Relation>  (2) 
'='

>  <Standard Units>  (2) 
nM

>  <Standard Value>  (2) 
21.6

>  <Assay ChEMBL ID>  (2) 
CHEMBL3888530

>  <Assay Description>  (2) 
Homogeneous Time-Resolved Fluorescence (HTRF) Assay: A recombinant GST-hSYK fusion protein was used to measure potency of compounds to inhibit human Syk activity. The recombinant human GST-SYK (Carna Biosciences #08-176) (5 μM final concentration) was incubated with various concentrations of the inhibitor diluted in DMSO (0.1% final concentration) for 10 minutes at room temperature in 15 mM Tris-HCl (pH 7.5), 0.01% tween 20, 2 mM DTT in 384 well plate format. To initiate the reaction the biotinylated substrate peptide (250 nM final concentration) that contains the phosphorylation site for Syk was added with magnesium (5 mM final concentration) and ATP (25 μM final concentration). Final volume of the reaction was 10 μL. Phosphorylation of the peptide was allowed to proceed for 45' at room temperature. To quench the reaction and detect the phosphorylated product, 2 nM of a Europium-anti-phosphotyrosine antibody (Perkin Elmer #AD0161) and 70 nM SA-APC (Perkin-Elmer #CR130-100) were added together in 15 mM Tris pH 7.5, 40 mM EDTA, 0.01% tween 20. Final volume of the quenching solution was 10 μL. The resulting HTRF signal was measured after 30 minutes on an EnVision (Perkin-Elmer) reader using a time-resolved fluorescence protocol.

>  <BAO Format ID>  (2) 
BAO_0000357

>  <BAO Label>  (2) 
single protein format

>  <Assay Organism>  (2) 
Homo sapiens

>  <Target ChEMBL ID>  (2) 
CHEMBL2599

>  <Target Name>  (2) 
Tyrosine-protein kinase SYK

>  <Target Organism>  (2) 
Homo sapiens

>  <Target Type>  (2) 
SINGLE PROTEIN

>  <Document ChEMBL ID>  (2) 
CHEMBL3886750

>  <Source Description>  (2) 
BindingDB Database

>  <Document Journal>  (2) 
nan

>  <Document Year>  (2) 
2016.0

>  <Active>  (2) 
1.0

>  <bits>  (2) 
<rdkit.DataStructs.cDataStructs.ExplicitBitVect object at 0x00000193F3401A10>

>  <Group>  (2) 
G2

$$$$

     RDKit          2D

 25 27  0  0  0  0  0  0  0  0999 V2000
    3.7500   -1.2990    0.0000 C   0  0  0  0  0  0  0  0  0  0  0  0
    3.0000    0.0000    0.0000 O   0  0  0  0  0  0  0  0  0  0  0  0
    1.5000    0.0000    0.0000 C   0  0  0  0  0  0  0  0  0  0  0  0
    0.7500   -1.2990    0.0000 C   0  0  0  0  0  0  0  0  0  0  0  0
   -0.7500   -1.2990    0.0000 C   0  0  0  0  0  0  0  0  0  0  0  0
   -1.5000    0.0000    0.0000 N   0  0  0  0  0  0  0  0  0  0  0  0
   -0.7500    1.2990    0.0000 C   0  0  0  0  0  0  0  0  0  0  0  0
   -1.5000    2.5981    0.0000 N   0  0  0  0  0  0  0  0  0  0  0  0
   -0.7500    3.8971    0.0000 C   0  0  0  0  0  0  0  0  0  0  0  0
    0.7500    3.8971    0.0000 C   0  0  0  0  0  0  0  0  0  0  0  0
    1.5000    5.1962    0.0000 C   0  0  0  0  0  0  0  0  0  0  0  0
    3.0000    5.1962    0.0000 C   0  0  0  0  0  0  0  0  0  0  0  0
    0.7500    6.4952    0.0000 C   0  0  0  0  0  0  0  0  0  0  0  0
   -0.7500    6.4952    0.0000 C   0  0  0  0  0  0  0  0  0  0  0  0
   -1.5000    7.7942    0.0000 C   0  0  0  0  0  0  0  0  0  0  0  0
   -0.7500    9.0933    0.0000 C   0  0  0  0  0  0  0  0  0  0  0  0
   -1.5000   10.3923    0.0000 C   0  0  0  0  0  0  0  0  0  0  0  0
   -3.0000   10.3923    0.0000 C   0  0  0  0  0  0  0  0  0  0  0  0
   -3.7500    9.0933    0.0000 C   0  0  0  0  0  0  0  0  0  0  0  0
   -5.2500    9.0933    0.0000 C   0  0  0  0  0  0  0  0  0  0  0  0
   -6.0000    7.7942    0.0000 O   0  0  0  0  0  0  0  0  0  0  0  0
   -6.0000   10.3923    0.0000 O   0  0  0  0  0  0  0  0  0  0  0  0
   -3.0000    7.7942    0.0000 C   0  0  0  0  0  0  0  0  0  0  0  0
   -1.5000    5.1962    0.0000 C   0  0  0  0  0  0  0  0  0  0  0  0
    0.7500    1.2990    0.0000 N   0  0  0  0  0  0  0  0  0  0  0  0
  1  2  1  0
  2  3  1  0
  3  4  2  0
  4  5  1  0
  5  6  2  0
  6  7  1  0
  7  8  1  0
  8  9  1  0
  9 10  2  0
 10 11  1  0
 11 12  1  0
 11 13  2  0
 13 14  1  0
 14 15  1  0
 15 16  2  0
 16 17  1  0
 17 18  2  0
 18 19  1  0
 19 20  1  0
 20 21  2  0
 20 22  1  0
 19 23  2  0
 14 24  2  0
  7 25  2  0
 25  3  1  0
 24  9  1  0
 23 15  1  0
M  END
>  <Compound_ID>  (3) 
CHEMBL3933644

>  <Molecule Name>  (3) 
nan

>  <Molecular Weight>  (3) 
335.36

>  <AlogP>  (3) 
3.90

>  <Smiles>  (3) 
COc1ccnc(Nc2cc(C)cc(-c3cccc(C(=O)O)c3)c2)n1

>  <Standard Type>  (3) 
IC50

>  <Standard Relation>  (3) 
'='

>  <Standard Units>  (3) 
nM

>  <Standard Value>  (3) 
6.2

>  <Assay ChEMBL ID>  (3) 
CHEMBL3888530

>  <Assay Description>  (3) 
Homogeneous Time-Resolved Fluorescence (HTRF) Assay: A recombinant GST-hSYK fusion protein was used to measure potency of compounds to inhibit human Syk activity. The recombinant human GST-SYK (Carna Biosciences #08-176) (5 μM final concentration) was incubated with various concentrations of the inhibitor diluted in DMSO (0.1% final concentration) for 10 minutes at room temperature in 15 mM Tris-HCl (pH 7.5), 0.01% tween 20, 2 mM DTT in 384 well plate format. To initiate the reaction the biotinylated substrate peptide (250 nM final concentration) that contains the phosphorylation site for Syk was added with magnesium (5 mM final concentration) and ATP (25 μM final concentration). Final volume of the reaction was 10 μL. Phosphorylation of the peptide was allowed to proceed for 45' at room temperature. To quench the reaction and detect the phosphorylated product, 2 nM of a Europium-anti-phosphotyrosine antibody (Perkin Elmer #AD0161) and 70 nM SA-APC (Perkin-Elmer #CR130-100) were added together in 15 mM Tris pH 7.5, 40 mM EDTA, 0.01% tween 20. Final volume of the quenching solution was 10 μL. The resulting HTRF signal was measured after 30 minutes on an EnVision (Perkin-Elmer) reader using a time-resolved fluorescence protocol.

>  <BAO Format ID>  (3) 
BAO_0000357

>  <BAO Label>  (3) 
single protein format

>  <Assay Organism>  (3) 
Homo sapiens

>  <Target ChEMBL ID>  (3) 
CHEMBL2599

>  <Target Name>  (3) 
Tyrosine-protein kinase SYK

>  <Target Organism>  (3) 
Homo sapiens

>  <Target Type>  (3) 
SINGLE PROTEIN

>  <Document ChEMBL ID>  (3) 
CHEMBL3886750

>  <Source Description>  (3) 
BindingDB Database

>  <Document Journal>  (3) 
nan

>  <Document Year>  (3) 
2016.0

>  <Active>  (3) 
1.0

>  <bits>  (3) 
<rdkit.DataStructs.cDataStructs.ExplicitBitVect object at 0x00000193F3400F20>

>  <Group>  (3) 
G2

$$$$

     RDKit          2D

 37 41  0  0  0  0  0  0  0  0999 V2000
   -1.2990   -7.3573    0.0000 C   0  0  0  0  0  0  0  0  0  0  0  0
   -1.2990   -5.8573    0.0000 N   0  0  0  0  0  0  0  0  0  0  0  0
   -0.0000   -5.1073    0.0000 C   0  0  0  0  0  0  0  0  0  0  0  0
    1.2990   -5.8573    0.0000 O   0  0  0  0  0  0  0  0  0  0  0  0
   -0.0000   -3.6073    0.0000 C   0  0  0  0  0  0  0  0  0  0  0  0
    1.2135   -2.7256    0.0000 C   0  0  0  0  0  0  0  0  0  0  0  0
    0.7500   -1.2990    0.0000 C   0  0  0  0  0  0  0  0  0  0  0  0
    1.5000    0.0000    0.0000 C   0  0  0  0  0  0  0  0  0  0  0  0
    0.7500    1.2990    0.0000 C   0  0  0  0  0  0  0  0  0  0  0  0
    1.5000    2.5981    0.0000 N   0  0  0  0  0  0  0  0  0  0  0  0
    3.0000    2.5981    0.0000 C   0  0  0  0  0  0  0  0  0  0  0  0
    3.7500    1.2990    0.0000 N   0  0  0  0  0  0  0  0  0  0  0  0
    5.2500    1.2990    0.0000 C   0  0  0  0  0  0  0  0  0  0  0  0
    6.0000    2.5981    0.0000 C   0  0  0  0  0  0  0  0  0  0  0  0
    5.2500    3.8971    0.0000 C   0  0  0  0  0  0  0  0  0  0  0  0
    6.0000    5.1962    0.0000 C   0  0  0  0  0  0  0  0  0  0  0  0
    7.5000    5.1962    0.0000 C   0  0  0  0  0  0  0  0  0  0  0  0
    8.2500    6.4952    0.0000 C   0  0  0  0  0  0  0  0  0  0  0  0
    9.7500    6.4952    0.0000 C   0  0  0  0  0  0  0  0  0  0  0  0
    9.7500    7.9952    0.0000 C   0  0  0  0  0  0  0  0  0  0  0  0
    9.7500    4.9952    0.0000 C   0  0  0  0  0  0  0  0  0  0  0  0
   11.2500    6.4952    0.0000 C   0  0  0  0  0  0  0  0  0  0  0  0
   12.7500    6.4952    0.0000 N   0  0  0  0  0  0  0  0  0  0  0  0
    7.5000    7.7942    0.0000 C   0  0  0  0  0  0  0  0  0  0  0  0
    6.0000    7.7942    0.0000 C   0  0  0  0  0  0  0  0  0  0  0  0
    5.2500    6.4952    0.0000 N   0  0  0  0  0  0  0  0  0  0  0  0
    3.7500    3.8971    0.0000 N   0  0  0  0  0  0  0  0  0  0  0  0
   -0.7500    1.2990    0.0000 C   0  0  0  0  0  0  0  0  0  0  0  0
   -1.5000    0.0000    0.0000 C   0  0  0  0  0  0  0  0  0  0  0  0
   -0.7500   -1.2990    0.0000 C   0  0  0  0  0  0  0  0  0  0  0  0
   -1.2135   -2.7256    0.0000 N   0  0  0  0  0  0  0  0  0  0  0  0
   -2.5981   -5.1073    0.0000 C   0  0  0  0  0  0  0  0  0  0  0  0
   -2.5981   -3.6073    0.0000 C   0  0  0  0  0  0  0  0  0  0  0  0
   -3.8971   -2.8573    0.0000 C   0  0  0  0  0  0  0  0  0  0  0  0
   -5.1962   -3.6073    0.0000 O   0  0  0  0  0  0  0  0  0  0  0  0
   -5.1962   -5.1073    0.0000 C   0  0  0  0  0  0  0  0  0  0  0  0
   -3.8971   -5.8573    0.0000 C   0  0  0  0  0  0  0  0  0  0  0  0
  1  2  1  0
  2  3  1  0
  3  4  2  0
  3  5  1  0
  5  6  2  0
  6  7  1  0
  7  8  2  0
  8  9  1  0
  9 10  1  0
 10 11  1  0
 11 12  2  0
 12 13  1  0
 13 14  2  0
 14 15  1  0
 15 16  1  0
 16 17  2  0
 17 18  1  0
 18 19  1  0
 19 20  1  0
 19 21  1  0
 19 22  1  0
 22 23  3  0
 18 24  2  0
 24 25  1  0
 25 26  2  0
 15 27  2  0
  9 28  2  0
 28 29  1  0
 29 30  2  0
 30 31  1  0
  2 32  1  0
 32 33  1  0
 33 34  1  0
 34 35  1  0
 35 36  1  0
 36 37  1  0
 31  5  1  0
 37 32  1  0
 30  7  1  0
 27 11  1  0
 26 16  1  0
M  END
>  <Compound_ID>  (4) 
CHEMBL3643808

>  <Molecule Name>  (4) 
nan

>  <Molecular Weight>  (4) 
495.59

>  <AlogP>  (4) 
4.82

>  <Smiles>  (4) 
CN(C(=O)c1cc2cc(Nc3nccc(-c4cc(C(C)(C)C#N)ccn4)n3)ccc2[nH]1)C1CCOCC1

>  <Standard Type>  (4) 
IC50

>  <Standard Relation>  (4) 
'='

>  <Standard Units>  (4) 
nM

>  <Standard Value>  (4) 
5.7

>  <Assay ChEMBL ID>  (4) 
CHEMBL3705803

>  <Assay Description>  (4) 
Kinase Glo Luminescence Kinase Assay: Recombinant human Syk (amino acids 342-635) was expressed as a fusion protein with an N-terminal GST tag, affinity-purified and deep-frozen at a concentration of approx. 50-100 uM in test buffer (25 mM HEPES pH7.5; 25 mM MgCl2; 5 mM MnCl2; 50 mM KCl; 0.2% BSA; 0.01% CHAPS; 100 uM Na3VO4; 0.5 mM DTT) and 10% glycerol at -80 C until use. The catalytic activity of the GST-Syk kinase fusion protein was determined using the Kinase Glo Luminescence Kinase test (Promega; V6712). In this homogeneous test the amount of ATP remaining after the kinase reaction is quantified by a luciferin-luciferase reaction using luminescence. The luminescence signal obtained correlates with the amount of ATP still present and thus correlates inversely with the activity of the protein kinase. The test compounds were dissolved in 100% DMSO at a concentration of 10 mM and diluted in DMSO to a concentration of 1 mM.

>  <BAO Format ID>  (4) 
BAO_0000357

>  <BAO Label>  (4) 
single protein format

>  <Assay Organism>  (4) 
Homo sapiens

>  <Target ChEMBL ID>  (4) 
CHEMBL2599

>  <Target Name>  (4) 
Tyrosine-protein kinase SYK

>  <Target Organism>  (4) 
Homo sapiens

>  <Target Type>  (4) 
SINGLE PROTEIN

>  <Document ChEMBL ID>  (4) 
CHEMBL3638486

>  <Source Description>  (4) 
BindingDB Database

>  <Document Journal>  (4) 
nan

>  <Document Year>  (4) 
2014.0

>  <Active>  (4) 
1.0

>  <bits>  (4) 
<rdkit.DataStructs.cDataStructs.ExplicitBitVect object at 0x00000193F34020A0>

>  <Group>  (4) 
G2

$$$$

     RDKit          2D

 33 37  0  0  0  0  0  0  0  0999 V2000
   -3.5736    1.2902    0.0000 C   0  0  0  0  0  0  0  0  0  0  0  0
   -2.1470    1.7537    0.0000 C   0  0  0  0  0  0  0  0  0  0  0  0
   -1.8351    3.2209    0.0000 C   0  0  0  0  0  0  0  0  0  0  0  0
   -0.4086    3.6844    0.0000 C   0  0  0  0  0  0  0  0  0  0  0  0
   -0.0967    5.1517    0.0000 N   0  0  0  0  0  0  0  0  0  0  0  0
    1.3299    5.6152    0.0000 C   0  0  0  0  0  0  0  0  0  0  0  0
    2.4446    4.6115    0.0000 N   0  0  0  0  0  0  0  0  0  0  0  0
    3.8712    5.0750    0.0000 C   0  0  0  0  0  0  0  0  0  0  0  0
    4.1831    6.5422    0.0000 C   0  0  0  0  0  0  0  0  0  0  0  0
    3.0684    7.5459    0.0000 C   0  0  0  0  0  0  0  0  0  0  0  0
    3.3802    9.0132    0.0000 C   0  0  0  0  0  0  0  0  0  0  0  0
    2.3765   10.1279    0.0000 C   0  0  0  0  0  0  0  0  0  0  0  0
    3.1265   11.4269    0.0000 N   0  0  0  0  0  0  0  0  0  0  0  0
    2.5164   12.7972    0.0000 C   0  0  0  0  0  0  0  0  0  0  0  0
    4.5937   11.1150    0.0000 C   0  0  0  0  0  0  0  0  0  0  0  0
    4.7505    9.6233    0.0000 N   0  0  0  0  0  0  0  0  0  0  0  0
    1.6418    7.0824    0.0000 N   0  0  0  0  0  0  0  0  0  0  0  0
    0.7062    2.6807    0.0000 C   0  0  0  0  0  0  0  0  0  0  0  0
    0.3943    1.2135    0.0000 C   0  0  0  0  0  0  0  0  0  0  0  0
    1.2760    0.0000    0.0000 C   0  0  0  0  0  0  0  0  0  0  0  0
    0.3943   -1.2135    0.0000 C   0  0  0  0  0  0  0  0  0  0  0  0
    0.8578   -2.6401    0.0000 C   0  0  0  0  0  0  0  0  0  0  0  0
    2.3250   -2.9520    0.0000 O   0  0  0  0  0  0  0  0  0  0  0  0
   -0.1459   -3.7548    0.0000 N   0  0  0  0  0  0  0  0  0  0  0  0
    0.3177   -5.1814    0.0000 C   0  0  0  0  0  0  0  0  0  0  0  0
   -0.6860   -6.2961    0.0000 C   0  0  0  0  0  0  0  0  0  0  0  0
   -0.3742   -7.7634    0.0000 C   0  0  0  0  0  0  0  0  0  0  0  0
   -1.6732   -8.5134    0.0000 N   0  0  0  0  0  0  0  0  0  0  0  0
   -1.8300  -10.0051    0.0000 C   0  0  0  0  0  0  0  0  0  0  0  0
   -2.7879   -7.5097    0.0000 C   0  0  0  0  0  0  0  0  0  0  0  0
   -2.1778   -6.1393    0.0000 N   0  0  0  0  0  0  0  0  0  0  0  0
   -1.0323   -0.7500    0.0000 N   0  0  0  0  0  0  0  0  0  0  0  0
   -1.0323    0.7500    0.0000 C   0  0  0  0  0  0  0  0  0  0  0  0
  1  2  1  0
  2  3  2  0
  3  4  1  0
  4  5  1  0
  5  6  1  0
  6  7  2  0
  7  8  1  0
  8  9  2  0
  9 10  1  0
 10 11  1  0
 11 12  2  0
 12 13  1  0
 13 14  1  0
 13 15  1  0
 15 16  2  0
 10 17  2  0
  4 18  2  0
 18 19  1  0
 19 20  1  0
 20 21  2  0
 21 22  1  0
 22 23  2  0
 22 24  1  0
 24 25  1  0
 25 26  1  0
 26 27  2  0
 27 28  1  0
 28 29  1  0
 28 30  1  0
 30 31  2  0
 21 32  1  0
 32 33  1  0
 33  2  1  0
 17  6  1  0
 33 19  2  0
 16 11  1  0
 31 26  1  0
M  END
>  <Compound_ID>  (5) 
CHEMBL3668832

>  <Molecule Name>  (5) 
nan

>  <Molecular Weight>  (5) 
441.5

>  <AlogP>  (5) 
3.07

>  <Smiles>  (5) 
Cc1cc(Nc2nccc(-c3cn(C)cn3)n2)cc2cc(C(=O)NCc3cn(C)cn3)[nH]c12

>  <Standard Type>  (5) 
IC50

>  <Standard Relation>  (5) 
'='

>  <Standard Units>  (5) 
nM

>  <Standard Value>  (5) 
4.5

>  <Assay ChEMBL ID>  (5) 
CHEMBL3706038

>  <Assay Description>  (5) 
In Vitro Kinase Assay: Recombinant human Syk (amino acids 342-635) was expressed as a fusion protein with an N-terminal GST tag, affinity-purified and deep-frozen at a concentration of approx. 50-100 uM in test buffer (25 mM HEPES pH7.5; 25 mM MgCl2; 5 mM MnCl2; 50 mM KCl; 1% HSA; 0.01% CHAPS; 100 uM Na3VO4; 0.5 mM DTT) and 10% glycerol at -80 C. until use.The catalytic activity of the GST-Syk kinase fusion protein was determined using the Kinase Glo Luminescence Kinase test (Promega; V6712). In this homogeneous test the amount of ATP remaining after the kinase reaction is quantified by a luciferin-luciferase reaction using luminescence. The luminescence signal obtained correlates with the amount of ATP still present and thus correlates inversely with the activity of the protein kinase. Method:The test compounds were dissolved in 100% DMSO at a concentration of 10 mM and diluted in DMSO to a concentration of 1 mM. All further dilutions of the substances were carried out with 7.5% DMSO.

>  <BAO Format ID>  (5) 
BAO_0000357

>  <BAO Label>  (5) 
single protein format

>  <Assay Organism>  (5) 
Homo sapiens

>  <Target ChEMBL ID>  (5) 
CHEMBL2599

>  <Target Name>  (5) 
Tyrosine-protein kinase SYK

>  <Target Organism>  (5) 
Homo sapiens

>  <Target Type>  (5) 
SINGLE PROTEIN

>  <Document ChEMBL ID>  (5) 
CHEMBL3638603

>  <Source Description>  (5) 
BindingDB Database

>  <Document Journal>  (5) 
nan

>  <Document Year>  (5) 
2015.0

>  <Active>  (5) 
1.0

>  <bits>  (5) 
<rdkit.DataStructs.cDataStructs.ExplicitBitVect object at 0x00000193F3403F40>

>  <Group>  (5) 
G2

$$$$

     RDKit          2D

 36 40  0  0  0  0  0  0  0  0999 V2000
   -1.2990   -7.3573    0.0000 C   0  0  0  0  0  0  0  0  0  0  0  0
   -1.2990   -5.8573    0.0000 N   0  0  0  0  0  0  0  0  0  0  0  0
   -2.5981   -5.1073    0.0000 C   0  0  0  0  0  0  0  0  0  0  0  0
   -0.0000   -5.1073    0.0000 C   0  0  0  0  0  0  0  0  0  0  0  0
    1.2990   -5.8573    0.0000 O   0  0  0  0  0  0  0  0  0  0  0  0
   -0.0000   -3.6073    0.0000 C   0  0  0  0  0  0  0  0  0  0  0  0
    1.2135   -2.7256    0.0000 C   0  0  0  0  0  0  0  0  0  0  0  0
    0.7500   -1.2990    0.0000 C   0  0  0  0  0  0  0  0  0  0  0  0
    1.5000    0.0000    0.0000 C   0  0  0  0  0  0  0  0  0  0  0  0
    0.7500    1.2990    0.0000 C   0  0  0  0  0  0  0  0  0  0  0  0
   -0.7500    1.2990    0.0000 C   0  0  0  0  0  0  0  0  0  0  0  0
   -1.5000    2.5981    0.0000 N   0  0  0  0  0  0  0  0  0  0  0  0
   -0.7500    3.8971    0.0000 C   0  0  0  0  0  0  0  0  0  0  0  0
    0.7500    3.8971    0.0000 N   0  0  0  0  0  0  0  0  0  0  0  0
    1.5000    5.1962    0.0000 C   0  0  0  0  0  0  0  0  0  0  0  0
    0.7500    6.4952    0.0000 C   0  0  0  0  0  0  0  0  0  0  0  0
   -0.7500    6.4952    0.0000 C   0  0  0  0  0  0  0  0  0  0  0  0
   -1.5000    7.7942    0.0000 C   0  0  0  0  0  0  0  0  0  0  0  0
   -0.7500    9.0933    0.0000 C   0  0  0  0  0  0  0  0  0  0  0  0
   -1.5000   10.3923    0.0000 C   0  0  0  0  0  0  0  0  0  0  0  0
   -0.7500   11.6913    0.0000 O   0  0  0  0  0  0  0  0  0  0  0  0
    0.7500   11.6913    0.0000 C   0  0  0  0  0  0  0  0  0  0  0  0
    1.5000   10.3923    0.0000 C   0  0  0  0  0  0  0  0  0  0  0  0
    3.0000   10.3923    0.0000 C   0  0  0  0  0  0  0  0  0  0  0  0
    3.7500   11.6913    0.0000 C   0  0  0  0  0  0  0  0  0  0  0  0
    5.2500   11.6913    0.0000 O   0  0  0  0  0  0  0  0  0  0  0  0
    3.0000   12.9904    0.0000 N   0  0  0  0  0  0  0  0  0  0  0  0
    1.5000   12.9904    0.0000 C   0  0  0  0  0  0  0  0  0  0  0  0
   -3.0000   10.3923    0.0000 C   0  0  0  0  0  0  0  0  0  0  0  0
   -3.7500    9.0933    0.0000 C   0  0  0  0  0  0  0  0  0  0  0  0
   -3.0000    7.7942    0.0000 N   0  0  0  0  0  0  0  0  0  0  0  0
   -1.5000    5.1962    0.0000 N   0  0  0  0  0  0  0  0  0  0  0  0
   -1.5000    0.0000    0.0000 C   0  0  0  0  0  0  0  0  0  0  0  0
   -0.7500   -1.2990    0.0000 C   0  0  0  0  0  0  0  0  0  0  0  0
   -1.2135   -2.7256    0.0000 N   0  0  0  0  0  0  0  0  0  0  0  0
   -2.6401   -3.1891    0.0000 C   0  0  0  0  0  0  0  0  0  0  0  0
  1  2  1  0
  2  3  1  0
  2  4  1  0
  4  5  2  0
  4  6  1  0
  6  7  2  0
  7  8  1  0
  8  9  2  0
  9 10  1  0
 10 11  2  0
 11 12  1  0
 12 13  1  0
 13 14  2  0
 14 15  1  0
 15 16  2  0
 16 17  1  0
 17 18  1  0
 18 19  2  0
 19 20  1  0
 20 21  1  0
 22 21  1  6
 22 23  1  0
 23 24  1  0
 24 25  1  0
 25 26  2  0
 25 27  1  0
 27 28  1  0
 20 29  2  0
 29 30  1  0
 30 31  2  0
 17 32  2  0
 11 33  1  0
 33 34  2  0
 34 35  1  0
 35 36  1  0
 35  6  1  0
 34  8  1  0
 32 13  1  0
 31 18  1  0
 28 22  1  0
M  END
>  <Compound_ID>  (6) 
CHEMBL3643800

>  <Molecule Name>  (6) 
nan

>  <Molecular Weight>  (6) 
485.55

>  <AlogP>  (6) 
3.13

>  <Smiles>  (6) 
CN(C)C(=O)c1cc2ccc(Nc3nccc(-c4cc(O[C@H]5CCC(=O)NC5)ccn4)n3)cc2n1C

>  <Standard Type>  (6) 
IC50

>  <Standard Relation>  (6) 
'='

>  <Standard Units>  (6) 
nM

>  <Standard Value>  (6) 
2.1

>  <Assay ChEMBL ID>  (6) 
CHEMBL3705803

>  <Assay Description>  (6) 
Kinase Glo Luminescence Kinase Assay: Recombinant human Syk (amino acids 342-635) was expressed as a fusion protein with an N-terminal GST tag, affinity-purified and deep-frozen at a concentration of approx. 50-100 uM in test buffer (25 mM HEPES pH7.5; 25 mM MgCl2; 5 mM MnCl2; 50 mM KCl; 0.2% BSA; 0.01% CHAPS; 100 uM Na3VO4; 0.5 mM DTT) and 10% glycerol at -80 C until use. The catalytic activity of the GST-Syk kinase fusion protein was determined using the Kinase Glo Luminescence Kinase test (Promega; V6712). In this homogeneous test the amount of ATP remaining after the kinase reaction is quantified by a luciferin-luciferase reaction using luminescence. The luminescence signal obtained correlates with the amount of ATP still present and thus correlates inversely with the activity of the protein kinase. The test compounds were dissolved in 100% DMSO at a concentration of 10 mM and diluted in DMSO to a concentration of 1 mM.

>  <BAO Format ID>  (6) 
BAO_0000357

>  <BAO Label>  (6) 
single protein format

>  <Assay Organism>  (6) 
Homo sapiens

>  <Target ChEMBL ID>  (6) 
CHEMBL2599

>  <Target Name>  (6) 
Tyrosine-protein kinase SYK

>  <Target Organism>  (6) 
Homo sapiens

>  <Target Type>  (6) 
SINGLE PROTEIN

>  <Document ChEMBL ID>  (6) 
CHEMBL3638486

>  <Source Description>  (6) 
BindingDB Database

>  <Document Journal>  (6) 
nan

>  <Document Year>  (6) 
2014.0

>  <Active>  (6) 
1.0

>  <bits>  (6) 
<rdkit.DataStructs.cDataStructs.ExplicitBitVect object at 0x00000193F3400970>

>  <Group>  (6) 
G2

$$$$

     RDKit          2D

 25 28  0  0  0  0  0  0  0  0999 V2000
   -3.9150   -6.5465    0.0000 C   0  0  0  0  0  0  0  0  0  0  0  0
   -4.3786   -5.1199    0.0000 C   0  0  0  0  0  0  0  0  0  0  0  0
   -4.8421   -3.6933    0.0000 C   0  0  0  0  0  0  0  0  0  0  0  0
   -5.8051   -5.5834    0.0000 C   0  0  0  0  0  0  0  0  0  0  0  0
   -2.9520   -4.6564    0.0000 N   0  0  0  0  0  0  0  0  0  0  0  0
   -2.6401   -3.1891    0.0000 C   0  0  0  0  0  0  0  0  0  0  0  0
   -3.7548   -2.1855    0.0000 O   0  0  0  0  0  0  0  0  0  0  0  0
   -1.2135   -2.7256    0.0000 C   0  0  0  0  0  0  0  0  0  0  0  0
   -0.0000   -3.6073    0.0000 C   0  0  0  0  0  0  0  0  0  0  0  0
    1.2135   -2.7256    0.0000 N   0  0  0  0  0  0  0  0  0  0  0  0
    0.7500   -1.2990    0.0000 C   0  0  0  0  0  0  0  0  0  0  0  0
    1.5000    0.0000    0.0000 N   0  0  0  0  0  0  0  0  0  0  0  0
    0.7500    1.2990    0.0000 C   0  0  0  0  0  0  0  0  0  0  0  0
   -0.7500    1.2990    0.0000 C   0  0  0  0  0  0  0  0  0  0  0  0
   -1.5000    2.5981    0.0000 C   0  0  0  0  0  0  0  0  0  0  0  0
   -2.9918    2.7549    0.0000 N   0  0  0  0  0  0  0  0  0  0  0  0
   -3.3037    4.2221    0.0000 C   0  0  0  0  0  0  0  0  0  0  0  0
   -2.0046    4.9721    0.0000 N   0  0  0  0  0  0  0  0  0  0  0  0
   -0.8899    3.9684    0.0000 C   0  0  0  0  0  0  0  0  0  0  0  0
    0.5367    4.4319    0.0000 C   0  0  0  0  0  0  0  0  0  0  0  0
    0.8486    5.8991    0.0000 C   0  0  0  0  0  0  0  0  0  0  0  0
   -0.2662    6.9028    0.0000 C   0  0  0  0  0  0  0  0  0  0  0  0
   -1.6927    6.4393    0.0000 C   0  0  0  0  0  0  0  0  0  0  0  0
   -1.5000    0.0000    0.0000 N   0  0  0  0  0  0  0  0  0  0  0  0
   -0.7500   -1.2990    0.0000 C   0  0  0  0  0  0  0  0  0  0  0  0
  1  2  1  0
  2  3  1  0
  2  4  1  0
  2  5  1  0
  5  6  1  0
  6  7  2  0
  6  8  1  0
  8  9  2  0
  9 10  1  0
 10 11  1  0
 11 12  2  0
 12 13  1  0
 13 14  2  0
 14 15  1  0
 15 16  1  0
 16 17  2  0
 17 18  1  0
 18 19  1  0
 19 20  1  0
 20 21  1  0
 21 22  1  0
 22 23  1  0
 14 24  1  0
 24 25  2  0
 25  8  1  0
 25 11  1  0
 19 15  2  0
 23 18  1  0
M  END
>  <Compound_ID>  (7) 
CHEMBL2347996

>  <Molecule Name>  (7) 
nan

>  <Molecular Weight>  (7) 
338.42

>  <AlogP>  (7) 
2.69

>  <Smiles>  (7) 
CC(C)(C)NC(=O)c1c[nH]c2ncc(-c3ncn4c3CCCC4)nc12

>  <Standard Type>  (7) 
IC50

>  <Standard Relation>  (7) 
'='

>  <Standard Units>  (7) 
nM

>  <Standard Value>  (7) 
26.0

>  <Assay ChEMBL ID>  (7) 
CHEMBL4010460

>  <Assay Description>  (7) 
Inhibition of SYK (unknown origin) using FAM-labeled peptide as substrate preincubated for 10 mins followed by substrate addition measured after 25 mins

>  <BAO Format ID>  (7) 
BAO_0000357

>  <BAO Label>  (7) 
single protein format

>  <Assay Organism>  (7) 
Homo sapiens

>  <Target ChEMBL ID>  (7) 
CHEMBL2599

>  <Target Name>  (7) 
Tyrosine-protein kinase SYK

>  <Target Organism>  (7) 
Homo sapiens

>  <Target Type>  (7) 
SINGLE PROTEIN

>  <Document ChEMBL ID>  (7) 
CHEMBL4007463

>  <Source Description>  (7) 
Scientific Literature

>  <Document Journal>  (7) 
Bioorg Med Chem Lett

>  <Document Year>  (7) 
2017.0

>  <Active>  (7) 
1.0

>  <bits>  (7) 
<rdkit.DataStructs.cDataStructs.ExplicitBitVect object at 0x00000193F3400E40>

>  <Group>  (7) 
G2

$$$$

     RDKit          2D

105108  0  0  0  0  0  0  0  0999 V2000
   -3.0000   -5.1962    0.0000 C   0  0  0  0  0  0  0  0  0  0  0  0
   -1.5000   -5.1962    0.0000 C   0  0  0  0  0  0  0  0  0  0  0  0
   -0.7500   -6.4952    0.0000 O   0  0  0  0  0  0  0  0  0  0  0  0
   -0.7500   -3.8971    0.0000 N   0  0  0  0  0  0  0  0  0  0  0  0
    0.7500   -3.8971    0.0000 C   0  0  0  0  0  0  0  0  0  0  0  0
    1.5000   -2.5981    0.0000 C   0  0  0  0  0  0  0  0  0  0  0  0
    0.7500   -1.2990    0.0000 C   0  0  0  0  0  0  0  0  0  0  0  0
    1.5000    0.0000    0.0000 C   0  0  0  0  0  0  0  0  0  0  0  0
    0.7500    1.2990    0.0000 C   0  0  0  0  0  0  0  0  0  0  0  0
   -0.7500    1.2990    0.0000 C   0  0  0  0  0  0  0  0  0  0  0  0
   -1.5000    2.5981    0.0000 O   0  0  0  0  0  0  0  0  0  0  0  0
   -0.7500    3.8971    0.0000 P   0  0  0  0  0  0  0  0  0  0  0  0
   -2.0490    4.6471    0.0000 O   0  0  0  0  0  0  0  0  0  0  0  0
    0.5490    3.1471    0.0000 O   0  0  0  0  0  0  0  0  0  0  0  0
    0.0000    5.1962    0.0000 O   0  0  0  0  0  0  0  0  0  0  0  0
   -1.5000    0.0000    0.0000 C   0  0  0  0  0  0  0  0  0  0  0  0
   -0.7500   -1.2990    0.0000 C   0  0  0  0  0  0  0  0  0  0  0  0
    1.5000   -5.1962    0.0000 C   0  0  0  0  0  0  0  0  0  0  0  0
    3.0000   -5.1962    0.0000 O   0  0  0  0  0  0  0  0  0  0  0  0
    0.7500   -6.4952    0.0000 N   0  0  0  0  0  0  0  0  0  0  0  0
    1.5000   -7.7942    0.0000 C   0  0  0  0  0  0  0  0  0  0  0  0
    3.0000   -7.7942    0.0000 C   0  0  0  0  0  0  0  0  0  0  0  0
    3.7500   -6.4952    0.0000 O   0  0  0  0  0  0  0  0  0  0  0  0
    3.7500   -9.0933    0.0000 N   0  0  0  0  0  0  0  0  0  0  0  0
    5.2500   -9.0933    0.0000 C   0  0  0  0  0  0  0  0  0  0  0  0
    6.0000  -10.3923    0.0000 C   0  0  0  0  0  0  0  0  0  0  0  0
    5.2500  -11.6913    0.0000 O   0  0  0  0  0  0  0  0  0  0  0  0
    7.5000  -10.3923    0.0000 N   0  0  0  0  0  0  0  0  0  0  0  0
    8.2500  -11.6913    0.0000 C   0  0  0  0  0  0  0  0  0  0  0  0
    9.7500  -11.6913    0.0000 C   0  0  0  0  0  0  0  0  0  0  0  0
   10.5000  -12.9904    0.0000 C   0  0  0  0  0  0  0  0  0  0  0  0
   12.0000  -12.9904    0.0000 C   0  0  0  0  0  0  0  0  0  0  0  0
    9.7500  -14.2894    0.0000 C   0  0  0  0  0  0  0  0  0  0  0  0
    7.5000  -12.9904    0.0000 C   0  0  0  0  0  0  0  0  0  0  0  0
    6.0000  -12.9904    0.0000 O   0  0  0  0  0  0  0  0  0  0  0  0
    8.2500  -14.2894    0.0000 N   0  0  0  0  0  0  0  0  0  0  0  0
    7.5000  -15.5885    0.0000 C   0  0  0  0  0  0  0  0  0  0  0  0
    8.2500  -16.8875    0.0000 C   0  0  0  0  0  0  0  0  0  0  0  0
    9.7500  -16.8875    0.0000 O   0  0  0  0  0  0  0  0  0  0  0  0
    7.5000  -18.1865    0.0000 N   0  0  0  0  0  0  0  0  0  0  0  0
    8.2500  -19.4856    0.0000 C   0  0  0  0  0  0  0  0  0  0  0  0
    7.5000  -20.7846    0.0000 C   0  0  0  0  0  0  0  0  0  0  0  0
    6.0000  -20.7846    0.0000 C   0  0  0  0  0  0  0  0  0  0  0  0
    5.2500  -22.0836    0.0000 C   0  0  0  0  0  0  0  0  0  0  0  0
    6.0000  -23.3827    0.0000 C   0  0  0  0  0  0  0  0  0  0  0  0
    5.2500  -24.6817    0.0000 N   0  0  0  0  0  0  0  0  0  0  0  0
    6.0000  -25.9808    0.0000 N   0  0  0  0  0  0  0  0  0  0  0  0
    5.2500  -27.2798    0.0000 C   0  0  0  0  0  0  0  0  0  0  0  0
    3.7500  -27.2798    0.0000 C   0  0  0  0  0  0  0  0  0  0  0  0
    3.0000  -28.5788    0.0000 C   0  0  0  0  0  0  0  0  0  0  0  0
    3.7500  -29.8779    0.0000 C   0  0  0  0  0  0  0  0  0  0  0  0
    3.0000  -31.1769    0.0000 C   0  0  0  0  0  0  0  0  0  0  0  0
    3.7500  -32.4760    0.0000 O   0  0  0  0  0  0  0  0  0  0  0  0
    1.5000  -31.1769    0.0000 N   0  0  0  0  0  0  0  0  0  0  0  0
    0.7500  -32.4760    0.0000 C   0  0  0  0  0  0  0  0  0  0  0  0
   -0.7500  -32.4760    0.0000 C   0  0  0  0  0  0  0  0  0  0  0  0
   -1.5000  -31.1769    0.0000 O   0  0  0  0  0  0  0  0  0  0  0  0
   -1.5000  -33.7750    0.0000 N   0  0  0  0  0  0  0  0  0  0  0  0
   -3.0000  -33.7750    0.0000 C   0  0  0  0  0  0  0  0  0  0  0  0
   -3.7500  -35.0740    0.0000 C   0  0  0  0  0  0  0  0  0  0  0  0
   -5.2500  -35.0740    0.0000 C   0  0  0  0  0  0  0  0  0  0  0  0
   -6.0000  -33.7750    0.0000 C   0  0  0  0  0  0  0  0  0  0  0  0
   -7.5000  -33.7750    0.0000 C   0  0  0  0  0  0  0  0  0  0  0  0
   -8.2500  -35.0740    0.0000 C   0  0  0  0  0  0  0  0  0  0  0  0
   -9.7500  -35.0740    0.0000 O   0  0  0  0  0  0  0  0  0  0  0  0
  -10.5000  -33.7750    0.0000 P   0  0  0  0  0  0  0  0  0  0  0  0
  -11.7990  -34.5250    0.0000 O   0  0  0  0  0  0  0  0  0  0  0  0
   -9.2010  -33.0250    0.0000 O   0  0  0  0  0  0  0  0  0  0  0  0
  -11.2500  -32.4760    0.0000 O   0  0  0  0  0  0  0  0  0  0  0  0
   -7.5000  -36.3731    0.0000 C   0  0  0  0  0  0  0  0  0  0  0  0
   -6.0000  -36.3731    0.0000 C   0  0  0  0  0  0  0  0  0  0  0  0
   -3.7500  -32.4760    0.0000 C   0  0  0  0  0  0  0  0  0  0  0  0
   -3.0000  -31.1769    0.0000 O   0  0  0  0  0  0  0  0  0  0  0  0
   -5.2500  -32.4760    0.0000 N   0  0  0  0  0  0  0  0  0  0  0  0
   -6.0000  -31.1769    0.0000 C   0  0  0  0  0  0  0  0  0  0  0  0
   -7.5000  -31.1769    0.0000 C   0  0  0  0  0  0  0  0  0  0  0  0
   -8.2500  -29.8779    0.0000 C   0  0  0  0  0  0  0  0  0  0  0  0
   -9.7500  -29.8779    0.0000 C   0  0  0  0  0  0  0  0  0  0  0  0
  -10.5000  -31.1769    0.0000 O   0  0  0  0  0  0  0  0  0  0  0  0
  -10.5000  -28.5788    0.0000 O   0  0  0  0  0  0  0  0  0  0  0  0
   -5.2500  -29.8779    0.0000 C   0  0  0  0  0  0  0  0  0  0  0  0
   -3.7500  -29.8779    0.0000 O   0  0  0  0  0  0  0  0  0  0  0  0
   -6.0000  -28.5788    0.0000 N   0  0  0  0  0  0  0  0  0  0  0  0
   -5.2500  -27.2798    0.0000 C   0  0  0  0  0  0  0  0  0  0  0  0
   -3.7500  -27.2798    0.0000 C   0  0  0  0  0  0  0  0  0  0  0  0
   -3.0000  -28.5788    0.0000 O   0  0  0  0  0  0  0  0  0  0  0  0
   -3.0000  -25.9808    0.0000 N   0  0  0  0  0  0  0  0  0  0  0  0
   -1.5000  -25.9808    0.0000 C   0  0  0  0  0  0  0  0  0  0  0  0
   -0.7500  -24.6817    0.0000 C   0  0  0  0  0  0  0  0  0  0  0  0
    0.7500  -24.6817    0.0000 C   0  0  0  0  0  0  0  0  0  0  0  0
    1.5000  -23.3827    0.0000 C   0  0  0  0  0  0  0  0  0  0  0  0
    1.5000  -25.9808    0.0000 C   0  0  0  0  0  0  0  0  0  0  0  0
   -0.7500  -27.2798    0.0000 C   0  0  0  0  0  0  0  0  0  0  0  0
    0.7500  -27.2798    0.0000 N   0  0  0  0  0  0  0  0  0  0  0  0
   -1.5000  -28.5788    0.0000 O   0  0  0  0  0  0  0  0  0  0  0  0
   -6.0000  -25.9808    0.0000 C   0  0  0  0  0  0  0  0  0  0  0  0
   -5.2500  -24.6817    0.0000 C   0  0  0  0  0  0  0  0  0  0  0  0
   -7.5000  -25.9808    0.0000 O   0  0  0  0  0  0  0  0  0  0  0  0
    5.2500  -29.8779    0.0000 C   0  0  0  0  0  0  0  0  0  0  0  0
    6.0000  -28.5788    0.0000 C   0  0  0  0  0  0  0  0  0  0  0  0
    7.5000  -23.3827    0.0000 C   0  0  0  0  0  0  0  0  0  0  0  0
    8.2500  -22.0836    0.0000 C   0  0  0  0  0  0  0  0  0  0  0  0
    0.7500   -9.0933    0.0000 C   0  0  0  0  0  0  0  0  0  0  0  0
    1.5000  -10.3923    0.0000 C   0  0  0  0  0  0  0  0  0  0  0  0
   -0.7500   -9.0933    0.0000 O   0  0  0  0  0  0  0  0  0  0  0  0
  1  2  1  0
  2  3  2  0
  2  4  1  0
  4  5  1  0
  5  6  1  1
  6  7  1  0
  7  8  2  0
  8  9  1  0
  9 10  2  0
 10 11  1  0
 11 12  1  0
 12 13  2  0
 12 14  1  0
 12 15  1  0
 10 16  1  0
 16 17  2  0
  5 18  1  0
 18 19  2  0
 18 20  1  0
 21 20  1  6
 21 22  1  0
 22 23  2  0
 22 24  1  0
 24 25  1  0
 25 26  1  0
 26 27  2  0
 26 28  1  0
 28 29  1  0
 29 30  1  1
 30 31  1  0
 31 32  1  0
 31 33  1  0
 29 34  1  0
 34 35  2  0
 34 36  1  0
 36 37  1  0
 37 38  1  0
 38 39  2  0
 38 40  1  0
 40 41  1  0
 41 42  1  0
 42 43  2  0
 43 44  1  0
 44 45  2  0
 45 46  1  0
 46 47  2  0
 47 48  1  0
 48 49  2  0
 49 50  1  0
 50 51  2  0
 51 52  1  0
 52 53  2  0
 52 54  1  0
 54 55  1  0
 55 56  1  0
 56 57  2  0
 56 58  1  0
 58 59  1  0
 59 60  1  1
 60 61  1  0
 61 62  2  0
 62 63  1  0
 63 64  2  0
 64 65  1  0
 65 66  1  0
 66 67  2  0
 66 68  1  0
 66 69  1  0
 64 70  1  0
 70 71  2  0
 59 72  1  0
 72 73  2  0
 72 74  1  0
 74 75  1  0
 75 76  1  1
 76 77  1  0
 77 78  1  0
 78 79  2  0
 78 80  1  0
 75 81  1  0
 81 82  2  0
 81 83  1  0
 84 83  1  1
 84 85  1  0
 85 86  2  0
 85 87  1  0
 87 88  1  0
 88 89  1  1
 89 90  1  0
 90 91  1  0
 90 92  1  0
 88 93  1  0
 93 94  1  0
 93 95  2  0
 84 96  1  0
 96 97  1  1
 96 98  1  0
 51 99  1  0
 99100  2  0
 45101  1  0
101102  2  0
 21103  1  0
103104  1  6
103105  1  0
 17  7  1  0
102 42  1  0
100 48  1  0
 71 61  1  0
M  END
>  <Compound_ID>  (8) 
CHEMBL405493

>  <Molecule Name>  (8) 
nan

>  <Molecular Weight>  (8) 
1511.44

>  <AlogP>  (8) 
None

>  <Smiles>  (8) 
CC(=O)N[C@@H](Cc1ccc(OP(=O)(O)O)cc1)C(=O)N[C@H](C(=O)NCC(=O)N[C@@H](CC(C)C)C(=O)NCC(=O)NCc1ccc(/N=N/c2ccc(C(=O)NCC(=O)N[C@@H](Cc3ccc(OP(=O)(O)O)cc3)C(=O)N[C@@H](CCC(=O)O)C(=O)N[C@H](C(=O)N[C@@H](CC(C)C)C(N)=O)[C@H](C)O)cc2)cc1)[C@H](C)O

>  <Standard Type>  (8) 
Kd

>  <Standard Relation>  (8) 
'='

>  <Standard Units>  (8) 
nM

>  <Standard Value>  (8) 
65.0

>  <Assay ChEMBL ID>  (8) 
CHEMBL922109

>  <Assay Description>  (8) 
Binding affinity to Syk tSH2 domain by SPR binding assay

>  <BAO Format ID>  (8) 
BAO_0000357

>  <BAO Label>  (8) 
single protein format

>  <Assay Organism>  (8) 
None

>  <Target ChEMBL ID>  (8) 
CHEMBL2599

>  <Target Name>  (8) 
Tyrosine-protein kinase SYK

>  <Target Organism>  (8) 
Homo sapiens

>  <Target Type>  (8) 
SINGLE PROTEIN

>  <Document ChEMBL ID>  (8) 
CHEMBL1143983

>  <Source Description>  (8) 
Scientific Literature

>  <Document Journal>  (8) 
Bioorg Med Chem

>  <Document Year>  (8) 
2008.0

>  <Active>  (8) 
1.0

>  <bits>  (8) 
<rdkit.DataStructs.cDataStructs.ExplicitBitVect object at 0x00000193F3401150>

>  <Group>  (8) 
G2

$$$$

     RDKit          2D

 40 44  0  0  0  0  0  0  0  0999 V2000
    2.6491    0.9642    0.0000 C   0  0  0  0  0  0  0  0  0  0  0  0
    1.5000    0.0000    0.0000 C   0  0  0  0  0  0  0  0  0  0  0  0
    2.6491   -0.9642    0.0000 C   0  0  0  0  0  0  0  0  0  0  0  0
    0.7500   -1.2990    0.0000 C   0  0  0  0  0  0  0  0  0  0  0  0
   -0.7500   -1.2990    0.0000 C   0  0  0  0  0  0  0  0  0  0  0  0
   -2.1595   -1.8121    0.0000 O   0  0  0  0  0  0  0  0  0  0  0  0
   -0.4895   -2.7762    0.0000 C   0  0  0  0  0  0  0  0  0  0  0  0
    0.8587   -3.4338    0.0000 N   0  0  0  0  0  0  0  0  0  0  0  0
    0.6499   -4.9192    0.0000 C   0  0  0  0  0  0  0  0  0  0  0  0
   -0.8273   -5.1797    0.0000 C   0  0  0  0  0  0  0  0  0  0  0  0
   -1.4849   -6.5279    0.0000 C   0  0  0  0  0  0  0  0  0  0  0  0
   -2.9812   -6.6325    0.0000 C   0  0  0  0  0  0  0  0  0  0  0  0
   -3.6388   -7.9807    0.0000 C   0  0  0  0  0  0  0  0  0  0  0  0
   -5.1351   -8.0853    0.0000 N   0  0  0  0  0  0  0  0  0  0  0  0
   -5.9739   -6.8418    0.0000 C   0  0  0  0  0  0  0  0  0  0  0  0
   -5.3163   -5.4936    0.0000 N   0  0  0  0  0  0  0  0  0  0  0  0
   -6.1551   -4.2500    0.0000 C   0  0  0  0  0  0  0  0  0  0  0  0
   -7.6515   -4.3547    0.0000 C   0  0  0  0  0  0  0  0  0  0  0  0
   -8.3090   -5.7029    0.0000 C   0  0  0  0  0  0  0  0  0  0  0  0
   -9.8054   -5.8075    0.0000 C   0  0  0  0  0  0  0  0  0  0  0  0
  -11.3017   -5.9121    0.0000 F   0  0  0  0  0  0  0  0  0  0  0  0
   -9.9100   -4.3111    0.0000 F   0  0  0  0  0  0  0  0  0  0  0  0
   -9.7007   -7.3038    0.0000 F   0  0  0  0  0  0  0  0  0  0  0  0
   -7.4702   -6.9464    0.0000 N   0  0  0  0  0  0  0  0  0  0  0  0
   -2.8000   -9.2243    0.0000 C   0  0  0  0  0  0  0  0  0  0  0  0
   -1.3036   -9.1196    0.0000 C   0  0  0  0  0  0  0  0  0  0  0  0
   -0.4648  -10.3632    0.0000 C   0  0  0  0  0  0  0  0  0  0  0  0
   -1.1224  -11.7114    0.0000 C   0  0  0  0  0  0  0  0  0  0  0  0
   -0.2836  -12.9549    0.0000 C   0  0  0  0  0  0  0  0  0  0  0  0
    1.2127  -12.8503    0.0000 N   0  0  0  0  0  0  0  0  0  0  0  0
    1.8703  -11.5021    0.0000 C   0  0  0  0  0  0  0  0  0  0  0  0
    1.0315  -10.2585    0.0000 C   0  0  0  0  0  0  0  0  0  0  0  0
   -0.6461   -7.7714    0.0000 C   0  0  0  0  0  0  0  0  0  0  0  0
   -1.5315   -3.8553    0.0000 S   0  0  0  0  0  0  0  0  0  0  0  0
   -1.5000    0.0000    0.0000 C   0  0  0  0  0  0  0  0  0  0  0  0
   -0.7500    1.2990    0.0000 C   0  0  0  0  0  0  0  0  0  0  0  0
    0.7500    1.2990    0.0000 C   0  0  0  0  0  0  0  0  0  0  0  0
    1.5000    2.5981    0.0000 C   0  0  0  0  0  0  0  0  0  0  0  0
    0.7500    3.8971    0.0000 O   0  0  0  0  0  0  0  0  0  0  0  0
    3.0000    2.5981    0.0000 O   0  0  0  0  0  0  0  0  0  0  0  0
  1  2  1  0
  2  3  1  0
  2  4  1  0
  4  5  1  0
  5  6  1  6
  5  7  1  0
  7  8  2  0
  8  9  1  0
  9 10  2  0
 10 11  1  0
 11 12  2  0
 12 13  1  0
 13 14  1  0
 14 15  1  0
 15 16  2  0
 16 17  1  0
 17 18  2  0
 18 19  1  0
 19 20  1  0
 20 21  1  0
 20 22  1  0
 20 23  1  0
 19 24  2  0
 13 25  2  0
 25 26  1  0
 26 27  1  0
 27 28  2  0
 28 29  1  0
 29 30  2  0
 30 31  1  0
 31 32  2  0
 26 33  2  0
 10 34  1  0
  5 35  1  0
 35 36  1  0
 36 37  1  0
 37 38  1  6
 38 39  2  0
 38 40  1  0
 37  2  1  0
 34  7  1  0
 33 11  1  0
 24 15  1  0
 32 27  1  0
M  END
>  <Compound_ID>  (9) 
CHEMBL4108628

>  <Molecule Name>  (9) 
nan

>  <Molecular Weight>  (9) 
569.61

>  <AlogP>  (9) 
6.52

>  <Smiles>  (9) 
CC1(C)C[C@@](O)(c2ncc(-c3cc(Nc4nccc(C(F)(F)F)n4)cc(-c4ccncc4)c3)s2)CC[C@@H]1C(=O)O

>  <Standard Type>  (9) 
IC50

>  <Standard Relation>  (9) 
'='

>  <Standard Units>  (9) 
nM

>  <Standard Value>  (9) 
1.558

>  <Assay ChEMBL ID>  (9) 
CHEMBL3889296

>  <Assay Description>  (9) 
Homogeneous Time-Resolved Fluorescence (HTRF) Assay: A recombinant GST-hSYK fusion protein was used to measure potency of compounds to inhibit human Syk activity. The recombinant human GST-SYK (Carna Biosciences #08-176) (5 pM final concentration) was incubated with various concentrations of the inhibitor diluted in DMSO (0.1% final concentration) for 10 minutes at room temperature in 15 mM Tris-HCl (pH 7.5), 0.01% tween 20, 2 mM DTT in 384 well plate format. To initiate the reaction the biotinylated substrate peptide (250 nM final concentration) that contains the phosphorylation site for Syk was added with magnesium (5 mM final concentration) and ATP (25 uM final concentration). Final volume of the reaction was 10 uL. Phosphorylation of the peptide was allowed to proceed for 45' at room temperature. To quench the reaction and detect the phosphorylated product, 2 nM of a Europium-anti-phosphotyrosine antibody (Perkin Elmer #AD0161) and 70 nM SA-APC (Perkin-Elmer #CR130-100) were added together in 15 mM Tris pH 7.5, 40 mM EDTA, 0.01% tween 20. Final volume of the quenching solution was 10 uL. The resulting HTRF signal was measured after 30 minutes on an EnVision (Perkin-Elmer) reader using a time-resolved fluorescence protocol.

>  <BAO Format ID>  (9) 
BAO_0000357

>  <BAO Label>  (9) 
single protein format

>  <Assay Organism>  (9) 
Homo sapiens

>  <Target ChEMBL ID>  (9) 
CHEMBL2599

>  <Target Name>  (9) 
Tyrosine-protein kinase SYK

>  <Target Organism>  (9) 
Homo sapiens

>  <Target Type>  (9) 
SINGLE PROTEIN

>  <Document ChEMBL ID>  (9) 
CHEMBL3887022

>  <Source Description>  (9) 
BindingDB Database

>  <Document Journal>  (9) 
nan

>  <Document Year>  (9) 
2016.0

>  <Active>  (9) 
1.0

>  <bits>  (9) 
<rdkit.DataStructs.cDataStructs.ExplicitBitVect object at 0x00000193F34033E0>

>  <Group>  (9) 
G2

$$$$

     RDKit          2D

 28 30  0  0  0  0  0  0  0  0999 V2000
    3.0000    0.0000    0.0000 C   0  0  0  0  0  0  0  0  0  0  0  0
    1.5000    0.0000    0.0000 C   0  0  0  0  0  0  0  0  0  0  0  0
    0.7500   -1.2990    0.0000 C   0  0  0  0  0  0  0  0  0  0  0  0
   -0.7500   -1.2990    0.0000 C   0  0  0  0  0  0  0  0  0  0  0  0
   -1.5000   -2.5981    0.0000 C   0  0  0  0  0  0  0  0  0  0  0  0
   -1.5000    0.0000    0.0000 C   0  0  0  0  0  0  0  0  0  0  0  0
   -0.7500    1.2990    0.0000 C   0  0  0  0  0  0  0  0  0  0  0  0
   -1.5000    2.5981    0.0000 N   0  0  0  0  0  0  0  0  0  0  0  0
   -0.7500    3.8971    0.0000 C   0  0  0  0  0  0  0  0  0  0  0  0
    0.7500    3.8971    0.0000 N   0  0  0  0  0  0  0  0  0  0  0  0
    1.5000    5.1962    0.0000 C   0  0  0  0  0  0  0  0  0  0  0  0
    0.7500    6.4952    0.0000 C   0  0  0  0  0  0  0  0  0  0  0  0
   -0.7500    6.4952    0.0000 C   0  0  0  0  0  0  0  0  0  0  0  0
   -1.5000    7.7942    0.0000 C   0  0  0  0  0  0  0  0  0  0  0  0
   -2.9918    7.9510    0.0000 N   0  0  0  0  0  0  0  0  0  0  0  0
   -3.3037    9.4182    0.0000 C   0  0  0  0  0  0  0  0  0  0  0  0
   -4.6740   10.0283    0.0000 C   0  0  0  0  0  0  0  0  0  0  0  0
   -2.0046   10.1682    0.0000 C   0  0  0  0  0  0  0  0  0  0  0  0
   -1.8478   11.6600    0.0000 C   0  0  0  0  0  0  0  0  0  0  0  0
   -3.0613   12.5417    0.0000 O   0  0  0  0  0  0  0  0  0  0  0  0
   -0.4775   12.2701    0.0000 N   0  0  0  0  0  0  0  0  0  0  0  0
   -0.3207   13.7619    0.0000 C   0  0  0  0  0  0  0  0  0  0  0  0
    1.0496   14.3720    0.0000 C   0  0  0  0  0  0  0  0  0  0  0  0
   -1.5342   14.6436    0.0000 C   0  0  0  0  0  0  0  0  0  0  0  0
   -1.3774   16.1354    0.0000 O   0  0  0  0  0  0  0  0  0  0  0  0
   -0.8899    9.1645    0.0000 S   0  0  0  0  0  0  0  0  0  0  0  0
   -1.5000    5.1962    0.0000 N   0  0  0  0  0  0  0  0  0  0  0  0
    0.7500    1.2990    0.0000 C   0  0  0  0  0  0  0  0  0  0  0  0
  1  2  1  0
  2  3  2  0
  3  4  1  0
  4  5  1  0
  4  6  2  0
  6  7  1  0
  7  8  1  0
  8  9  1  0
  9 10  2  0
 10 11  1  0
 11 12  2  0
 12 13  1  0
 13 14  1  0
 14 15  2  0
 15 16  1  0
 16 17  1  0
 16 18  2  0
 18 19  1  0
 19 20  2  0
 19 21  1  0
 21 22  1  0
 22 23  1  6
 22 24  1  0
 24 25  1  0
 18 26  1  0
 13 27  2  0
  7 28  2  0
 28  2  1  0
 27  9  1  0
 26 14  1  0
M  END
>  <Compound_ID>  (10) 
CHEMBL512172

>  <Molecule Name>  (10) 
nan

>  <Molecular Weight>  (10) 
397.5

>  <AlogP>  (10) 
3.38

>  <Smiles>  (10) 
Cc1cc(C)cc(Nc2nccc(-c3nc(C)c(C(=O)N[C@@H](C)CO)s3)n2)c1

>  <Standard Type>  (10) 
IC50

>  <Standard Relation>  (10) 
'='

>  <Standard Units>  (10) 
nM

>  <Standard Value>  (10) 
6.0

>  <Assay ChEMBL ID>  (10) 
CHEMBL4010460

>  <Assay Description>  (10) 
Inhibition of SYK (unknown origin) using FAM-labeled peptide as substrate preincubated for 10 mins followed by substrate addition measured after 25 mins

>  <BAO Format ID>  (10) 
BAO_0000357

>  <BAO Label>  (10) 
single protein format

>  <Assay Organism>  (10) 
Homo sapiens

>  <Target ChEMBL ID>  (10) 
CHEMBL2599

>  <Target Name>  (10) 
Tyrosine-protein kinase SYK

>  <Target Organism>  (10) 
Homo sapiens

>  <Target Type>  (10) 
SINGLE PROTEIN

>  <Document ChEMBL ID>  (10) 
CHEMBL4007463

>  <Source Description>  (10) 
Scientific Literature

>  <Document Journal>  (10) 
Bioorg Med Chem Lett

>  <Document Year>  (10) 
2017.0

>  <Active>  (10) 
1.0

>  <bits>  (10) 
<rdkit.DataStructs.cDataStructs.ExplicitBitVect object at 0x00000193F3401310>

>  <Group>  (10) 
G2

$$$$

     RDKit          2D

 32 35  0  0  0  0  0  0  0  0999 V2000
    5.2500   -1.2990    0.0000 C   0  0  0  0  0  0  0  0  0  0  0  0
    3.7500   -1.2990    0.0000 C   0  0  0  0  0  0  0  0  0  0  0  0
    3.0000    0.0000    0.0000 N   0  0  0  0  0  0  0  0  0  0  0  0
    1.5000    0.0000    0.0000 C   0  0  0  0  0  0  0  0  0  0  0  0
    0.7500   -1.2990    0.0000 N   0  0  0  0  0  0  0  0  0  0  0  0
   -0.7500   -1.2990    0.0000 C   0  0  0  0  0  0  0  0  0  0  0  0
   -1.5000   -2.5981    0.0000 C   0  0  0  0  0  0  0  0  0  0  0  0
   -3.0000   -2.5981    0.0000 C   0  0  0  0  0  0  0  0  0  0  0  0
   -3.7500   -3.8971    0.0000 C   0  0  0  0  0  0  0  0  0  0  0  0
   -3.0000   -5.1962    0.0000 C   0  0  0  0  0  0  0  0  0  0  0  0
   -3.7500   -6.4952    0.0000 S   0  0  0  0  0  0  0  0  0  0  0  0
   -2.4510   -7.2452    0.0000 O   0  0  0  0  0  0  0  0  0  0  0  0
   -5.0490   -5.7452    0.0000 O   0  0  0  0  0  0  0  0  0  0  0  0
   -4.5000   -7.7942    0.0000 C   0  0  0  0  0  0  0  0  0  0  0  0
   -3.7500   -9.0933    0.0000 C   0  0  0  0  0  0  0  0  0  0  0  0
   -4.5000  -10.3923    0.0000 N   0  0  0  0  0  0  0  0  0  0  0  0
   -6.0000  -10.3923    0.0000 C   0  0  0  0  0  0  0  0  0  0  0  0
   -6.7500  -11.6913    0.0000 C   0  0  0  0  0  0  0  0  0  0  0  0
   -6.0000  -12.9904    0.0000 O   0  0  0  0  0  0  0  0  0  0  0  0
   -4.5000  -12.9904    0.0000 C   0  0  0  0  0  0  0  0  0  0  0  0
   -3.7500  -11.6913    0.0000 C   0  0  0  0  0  0  0  0  0  0  0  0
   -1.5000   -5.1962    0.0000 C   0  0  0  0  0  0  0  0  0  0  0  0
   -0.7500   -3.8971    0.0000 C   0  0  0  0  0  0  0  0  0  0  0  0
   -1.5000    0.0000    0.0000 C   0  0  0  0  0  0  0  0  0  0  0  0
   -0.7500    1.2990    0.0000 C   0  0  0  0  0  0  0  0  0  0  0  0
   -1.5000    2.5981    0.0000 N   0  0  0  0  0  0  0  0  0  0  0  0
   -0.7500    3.8971    0.0000 C   0  0  0  0  0  0  0  0  0  0  0  0
    0.7500    3.8971    0.0000 N   0  0  0  0  0  0  0  0  0  0  0  0
    1.5000    5.1962    0.0000 C   0  0  0  0  0  0  0  0  0  0  0  0
    1.5000    2.5981    0.0000 C   0  0  0  0  0  0  0  0  0  0  0  0
    3.0000    2.5981    0.0000 O   0  0  0  0  0  0  0  0  0  0  0  0
    0.7500    1.2990    0.0000 C   0  0  0  0  0  0  0  0  0  0  0  0
  1  2  1  0
  2  3  1  0
  3  4  1  0
  4  5  2  0
  5  6  1  0
  6  7  1  0
  7  8  2  0
  8  9  1  0
  9 10  2  0
 10 11  1  0
 11 12  2  0
 11 13  2  0
 11 14  1  0
 14 15  1  0
 15 16  1  0
 16 17  1  0
 17 18  1  0
 18 19  1  0
 19 20  1  0
 20 21  1  0
 10 22  1  0
 22 23  2  0
  6 24  2  0
 24 25  1  0
 25 26  1  0
 26 27  2  0
 27 28  1  0
 28 29  1  0
 28 30  1  0
 30 31  2  0
 30 32  1  0
 32  4  1  0
 23  7  1  0
 32 25  2  0
 21 16  1  0
M  END
>  <Compound_ID>  (11) 
CHEMBL3698140

>  <Molecule Name>  (11) 
nan

>  <Molecular Weight>  (11) 
457.56

>  <AlogP>  (11) 
1.53

>  <Smiles>  (11) 
CCNc1nc(-c2ccc(S(=O)(=O)CCN3CCOCC3)cc2)cc2ncn(C)c(=O)c12

>  <Standard Type>  (11) 
IC50

>  <Standard Relation>  (11) 
'='

>  <Standard Units>  (11) 
nM

>  <Standard Value>  (11) 
82.0

>  <Assay ChEMBL ID>  (11) 
CHEMBL3705362

>  <Assay Description>  (11) 
Mobility-Shift kinase assay: Compounds of the examples provided herein were assessed for their ability to inhibit Syk kinase by utilizing Caliper Life Sciences' proprietary LabChip technology. The off-chip incubation mobility-shift kinase assay uses a microfluidic chip to measure the conversion of a fluorescent peptide substrate to a phosphorylated product. The reaction mixture, from a microtiter plate well, is introduced through a capillary sipper onto the chip, where the nonphosphorylated substrate and phosphorylated product are separated by electrophoresis and detected via laser induced fluorescence. The signature of the fluorescence signal over time reveals the extent of the reaction. The phosphorylated product migrates through the chip faster than the non-phosphorylated substrate, and signals from the two forms of the peptide appear as distinct peaks.

>  <BAO Format ID>  (11) 
BAO_0000357

>  <BAO Label>  (11) 
single protein format

>  <Assay Organism>  (11) 
Homo sapiens

>  <Target ChEMBL ID>  (11) 
CHEMBL2599

>  <Target Name>  (11) 
Tyrosine-protein kinase SYK

>  <Target Organism>  (11) 
Homo sapiens

>  <Target Type>  (11) 
SINGLE PROTEIN

>  <Document ChEMBL ID>  (11) 
CHEMBL3639055

>  <Source Description>  (11) 
BindingDB Database

>  <Document Journal>  (11) 
nan

>  <Document Year>  (11) 
2014.0

>  <Active>  (11) 
1.0

>  <bits>  (11) 
<rdkit.DataStructs.cDataStructs.ExplicitBitVect object at 0x00000193F3403B50>

>  <Group>  (11) 
G2

$$$$

     RDKit          2D

 22 24  0  0  0  0  0  0  0  0999 V2000
    3.7500   -1.2990    0.0000 C   0  0  0  0  0  0  0  0  0  0  0  0
    3.0000    0.0000    0.0000 O   0  0  0  0  0  0  0  0  0  0  0  0
    1.5000    0.0000    0.0000 C   0  0  0  0  0  0  0  0  0  0  0  0
    0.7500   -1.2990    0.0000 C   0  0  0  0  0  0  0  0  0  0  0  0
   -0.7500   -1.2990    0.0000 C   0  0  0  0  0  0  0  0  0  0  0  0
   -1.5000   -2.5981    0.0000 N   0  0  0  0  0  0  0  0  0  0  0  0
   -3.0000   -2.5981    0.0000 C   0  0  0  0  0  0  0  0  0  0  0  0
   -3.7500   -1.2990    0.0000 N   0  0  0  0  0  0  0  0  0  0  0  0
   -5.2500   -1.2990    0.0000 C   0  0  0  0  0  0  0  0  0  0  0  0
   -6.0000   -2.5981    0.0000 C   0  0  0  0  0  0  0  0  0  0  0  0
   -5.2500   -3.8971    0.0000 C   0  0  0  0  0  0  0  0  0  0  0  0
   -6.0000   -5.1962    0.0000 C   0  0  0  0  0  0  0  0  0  0  0  0
   -5.3899   -6.5665    0.0000 N   0  0  0  0  0  0  0  0  0  0  0  0
   -6.5046   -7.5702    0.0000 C   0  0  0  0  0  0  0  0  0  0  0  0
   -7.8037   -6.8202    0.0000 C   0  0  0  0  0  0  0  0  0  0  0  0
   -7.4918   -5.3529    0.0000 S   0  0  0  0  0  0  0  0  0  0  0  0
   -3.7500   -3.8971    0.0000 N   0  0  0  0  0  0  0  0  0  0  0  0
   -1.5000    0.0000    0.0000 C   0  0  0  0  0  0  0  0  0  0  0  0
   -0.7500    1.2990    0.0000 C   0  0  0  0  0  0  0  0  0  0  0  0
   -1.5000    2.5981    0.0000 O   0  0  0  0  0  0  0  0  0  0  0  0
   -0.7500    3.8971    0.0000 C   0  0  0  0  0  0  0  0  0  0  0  0
    0.7500    1.2990    0.0000 C   0  0  0  0  0  0  0  0  0  0  0  0
  1  2  1  0
  2  3  1  0
  3  4  2  0
  4  5  1  0
  5  6  1  0
  6  7  1  0
  7  8  2  0
  8  9  1  0
  9 10  2  0
 10 11  1  0
 11 12  1  0
 12 13  2  0
 13 14  1  0
 14 15  2  0
 15 16  1  0
 11 17  2  0
  5 18  2  0
 18 19  1  0
 19 20  1  0
 20 21  1  0
 19 22  2  0
 22  3  1  0
 17  7  1  0
 16 12  1  0
M  END
>  <Compound_ID>  (12) 
CHEMBL472478

>  <Molecule Name>  (12) 
nan

>  <Molecular Weight>  (12) 
314.37

>  <AlogP>  (12) 
3.36

>  <Smiles>  (12) 
COc1cc(Nc2nccc(-c3nccs3)n2)cc(OC)c1

>  <Standard Type>  (12) 
IC50

>  <Standard Relation>  (12) 
'='

>  <Standard Units>  (12) 
nM

>  <Standard Value>  (12) 
70.0

>  <Assay ChEMBL ID>  (12) 
CHEMBL945314

>  <Assay Description>  (12) 
Inhibition of SYK-mediated FCepsilonRI signaling activity by mast cell degranulation assay

>  <BAO Format ID>  (12) 
BAO_0000357

>  <BAO Label>  (12) 
single protein format

>  <Assay Organism>  (12) 
None

>  <Target ChEMBL ID>  (12) 
CHEMBL2599

>  <Target Name>  (12) 
Tyrosine-protein kinase SYK

>  <Target Organism>  (12) 
Homo sapiens

>  <Target Type>  (12) 
SINGLE PROTEIN

>  <Document ChEMBL ID>  (12) 
CHEMBL1152268

>  <Source Description>  (12) 
Scientific Literature

>  <Document Journal>  (12) 
Bioorg Med Chem Lett

>  <Document Year>  (12) 
2008.0

>  <Active>  (12) 
1.0

>  <bits>  (12) 
<rdkit.DataStructs.cDataStructs.ExplicitBitVect object at 0x00000193F3403CA0>

>  <Group>  (12) 
G2

$$$$

     RDKit          2D

 31 33  0  0  0  0  0  0  0  0999 V2000
    3.0000    0.0000    0.0000 C   0  0  0  0  0  0  0  0  0  0  0  0
    1.5000    0.0000    0.0000 C   0  0  0  0  0  0  0  0  0  0  0  0
    0.7500   -1.2990    0.0000 C   0  0  0  0  0  0  0  0  0  0  0  0
   -0.7500   -1.2990    0.0000 C   0  0  0  0  0  0  0  0  0  0  0  0
   -1.5000   -2.5981    0.0000 N   0  0  0  0  0  0  0  0  0  0  0  0
   -3.0000   -2.5981    0.0000 C   0  0  0  0  0  0  0  0  0  0  0  0
   -3.7500   -1.2990    0.0000 N   0  0  0  0  0  0  0  0  0  0  0  0
   -5.2500   -1.2990    0.0000 C   0  0  0  0  0  0  0  0  0  0  0  0
   -6.0000   -2.5981    0.0000 C   0  0  0  0  0  0  0  0  0  0  0  0
   -5.2500   -3.8971    0.0000 C   0  0  0  0  0  0  0  0  0  0  0  0
   -6.0000   -5.1962    0.0000 C   0  0  0  0  0  0  0  0  0  0  0  0
   -6.7500   -6.4952    0.0000 F   0  0  0  0  0  0  0  0  0  0  0  0
   -7.2990   -4.4462    0.0000 F   0  0  0  0  0  0  0  0  0  0  0  0
   -4.7010   -5.9462    0.0000 F   0  0  0  0  0  0  0  0  0  0  0  0
   -3.7500   -3.8971    0.0000 N   0  0  0  0  0  0  0  0  0  0  0  0
   -1.5000    0.0000    0.0000 C   0  0  0  0  0  0  0  0  0  0  0  0
   -0.7500    1.2990    0.0000 C   0  0  0  0  0  0  0  0  0  0  0  0
   -1.5000    2.5981    0.0000 C   0  0  0  0  0  0  0  0  0  0  0  0
   -2.9918    2.7549    0.0000 C   0  0  0  0  0  0  0  0  0  0  0  0
   -3.3037    4.2221    0.0000 N   0  0  0  0  0  0  0  0  0  0  0  0
   -2.0046    4.9721    0.0000 C   0  0  0  0  0  0  0  0  0  0  0  0
   -1.8478    6.4639    0.0000 C   0  0  0  0  0  0  0  0  0  0  0  0
   -3.0613    7.3456    0.0000 O   0  0  0  0  0  0  0  0  0  0  0  0
   -0.4775    7.0740    0.0000 N   0  0  0  0  0  0  0  0  0  0  0  0
   -0.3207    8.5658    0.0000 C   0  0  0  0  0  0  0  0  0  0  0  0
    1.0496    9.1759    0.0000 C   0  0  0  0  0  0  0  0  0  0  0  0
    1.2064   10.6676    0.0000 O   0  0  0  0  0  0  0  0  0  0  0  0
   -1.5342    9.4474    0.0000 C   0  0  0  0  0  0  0  0  0  0  0  0
   -1.3774   10.9392    0.0000 O   0  0  0  0  0  0  0  0  0  0  0  0
   -0.8899    3.9684    0.0000 S   0  0  0  0  0  0  0  0  0  0  0  0
    0.7500    1.2990    0.0000 C   0  0  0  0  0  0  0  0  0  0  0  0
  1  2  1  0
  2  3  2  0
  3  4  1  0
  4  5  1  0
  5  6  1  0
  6  7  2  0
  7  8  1  0
  8  9  2  0
  9 10  1  0
 10 11  1  0
 11 12  1  0
 11 13  1  0
 11 14  1  0
 10 15  2  0
  4 16  2  0
 16 17  1  0
 17 18  1  0
 18 19  2  0
 19 20  1  0
 20 21  2  0
 21 22  1  0
 22 23  2  0
 22 24  1  0
 24 25  1  0
 25 26  1  0
 26 27  1  0
 25 28  1  0
 28 29  1  0
 21 30  1  0
 17 31  2  0
 31  2  1  0
 15  6  1  0
 30 18  1  0
M  END
>  <Compound_ID>  (13) 
CHEMBL3685791

>  <Molecule Name>  (13) 
nan

>  <Molecular Weight>  (13) 
453.45

>  <AlogP>  (13) 
2.75

>  <Smiles>  (13) 
Cc1cc(Nc2nccc(C(F)(F)F)n2)cc(-c2cnc(C(=O)NC(CO)CO)s2)c1

>  <Standard Type>  (13) 
IC50

>  <Standard Relation>  (13) 
'='

>  <Standard Units>  (13) 
nM

>  <Standard Value>  (13) 
26.0

>  <Assay ChEMBL ID>  (13) 
CHEMBL3705225

>  <Assay Description>  (13) 
Homogeneous Time-Resolved Fluorescence (HTRF) Assay : A recombinant GST-hSYK fusion protein was used to measure potency of compounds to inhibit human SYK activity. The recombinant human GST-SYK (Carna Biosciences #08-176) (5 pM final concentration) was incubated with various concentrations of the inhibitor diluted in DMSO (0.1% final concentration) for 10 minutes at room temperature in 15 mM Tris-HCl (pH 7.5), 0.01% tween 20, 2 mM DTT in 384 well plate format. To initiate the reaction the biotinylated substrate peptide (250 nM final concentration) that contains the phosphorylation site for SYK was added with magnesium (5 mM final concentration) and ATP (25 μM final concentration). Final volume of the reaction was 10 μL. Phosphorylation of the peptide was allowed to proceed for 45′ at room temperature.

>  <BAO Format ID>  (13) 
BAO_0000357

>  <BAO Label>  (13) 
single protein format

>  <Assay Organism>  (13) 
Homo sapiens

>  <Target ChEMBL ID>  (13) 
CHEMBL2599

>  <Target Name>  (13) 
Tyrosine-protein kinase SYK

>  <Target Organism>  (13) 
Homo sapiens

>  <Target Type>  (13) 
SINGLE PROTEIN

>  <Document ChEMBL ID>  (13) 
CHEMBL3639355

>  <Source Description>  (13) 
BindingDB Database

>  <Document Journal>  (13) 
nan

>  <Document Year>  (13) 
2014.0

>  <Active>  (13) 
1.0

>  <bits>  (13) 
<rdkit.DataStructs.cDataStructs.ExplicitBitVect object at 0x00000193F3400CF0>

>  <Group>  (13) 
G2

$$$$

     RDKit          2D

 33 37  0  0  0  0  0  0  0  0999 V2000
    6.0000  -10.3923    0.0000 C   0  0  0  0  0  0  0  0  0  0  0  0
    5.2500   -9.0933    0.0000 N   0  0  0  0  0  0  0  0  0  0  0  0
    3.7500   -9.0933    0.0000 C   0  0  0  0  0  0  0  0  0  0  0  0
    3.0000   -7.7942    0.0000 C   0  0  0  0  0  0  0  0  0  0  0  0
    3.7500   -6.4952    0.0000 N   0  0  0  0  0  0  0  0  0  0  0  0
    3.0000   -5.1962    0.0000 C   0  0  0  0  0  0  0  0  0  0  0  0
    3.7500   -3.8971    0.0000 C   0  0  0  0  0  0  0  0  0  0  0  0
    3.0000   -2.5981    0.0000 C   0  0  0  0  0  0  0  0  0  0  0  0
    1.5000   -2.5981    0.0000 C   0  0  0  0  0  0  0  0  0  0  0  0
    0.7500   -1.2990    0.0000 C   0  0  0  0  0  0  0  0  0  0  0  0
    1.5000    0.0000    0.0000 C   0  0  0  0  0  0  0  0  0  0  0  0
    0.7500    1.2990    0.0000 C   0  0  0  0  0  0  0  0  0  0  0  0
    1.5000    2.5981    0.0000 N   0  0  0  0  0  0  0  0  0  0  0  0
    0.7500    3.8971    0.0000 C   0  0  0  0  0  0  0  0  0  0  0  0
   -0.7500    3.8971    0.0000 N   0  0  0  0  0  0  0  0  0  0  0  0
   -1.5000    5.1962    0.0000 C   0  0  0  0  0  0  0  0  0  0  0  0
   -1.5000    2.5981    0.0000 C   0  0  0  0  0  0  0  0  0  0  0  0
   -3.0000    2.5981    0.0000 O   0  0  0  0  0  0  0  0  0  0  0  0
   -0.7500    1.2990    0.0000 C   0  0  0  0  0  0  0  0  0  0  0  0
   -1.5000    0.0000    0.0000 C   0  0  0  0  0  0  0  0  0  0  0  0
   -3.0000    0.0000    0.0000 O   0  0  0  0  0  0  0  0  0  0  0  0
   -3.7500   -1.2990    0.0000 C   0  0  0  0  0  0  0  0  0  0  0  0
   -5.2500   -1.2990    0.0000 C   0  0  0  0  0  0  0  0  0  0  0  0
   -6.0000   -2.5981    0.0000 C   0  0  0  0  0  0  0  0  0  0  0  0
   -5.3899   -3.9684    0.0000 C   0  0  0  0  0  0  0  0  0  0  0  0
   -6.5046   -4.9721    0.0000 N   0  0  0  0  0  0  0  0  0  0  0  0
   -7.8037   -4.2221    0.0000 N   0  0  0  0  0  0  0  0  0  0  0  0
   -7.4918   -2.7549    0.0000 N   0  0  0  0  0  0  0  0  0  0  0  0
   -0.7500   -1.2990    0.0000 N   0  0  0  0  0  0  0  0  0  0  0  0
    0.7500   -3.8971    0.0000 C   0  0  0  0  0  0  0  0  0  0  0  0
    1.5000   -5.1962    0.0000 C   0  0  0  0  0  0  0  0  0  0  0  0
    5.2500   -6.4952    0.0000 C   0  0  0  0  0  0  0  0  0  0  0  0
    6.0000   -7.7942    0.0000 C   0  0  0  0  0  0  0  0  0  0  0  0
  1  2  1  0
  2  3  1  0
  3  4  1  0
  4  5  1  0
  5  6  1  0
  6  7  2  0
  7  8  1  0
  8  9  2  0
  9 10  1  0
 10 11  2  0
 11 12  1  0
 12 13  1  0
 13 14  2  0
 14 15  1  0
 15 16  1  0
 15 17  1  0
 17 18  2  0
 17 19  1  0
 19 20  1  0
 20 21  1  0
 21 22  1  0
 22 23  1  0
 23 24  1  0
 24 25  2  0
 25 26  1  0
 26 27  2  0
 27 28  1  0
 20 29  2  0
  9 30  1  0
 30 31  2  0
  5 32  1  0
 32 33  1  0
 33  2  1  0
 31  6  1  0
 29 10  1  0
 19 12  2  0
 28 24  1  0
M  END
>  <Compound_ID>  (14) 
CHEMBL3643532

>  <Molecule Name>  (14) 
nan

>  <Molecular Weight>  (14) 
446.52

>  <AlogP>  (14) 
1.49

>  <Smiles>  (14) 
CN1CCN(c2ccc(-c3cc4ncn(C)c(=O)c4c(OCCc4cnn[nH]4)n3)cc2)CC1

>  <Standard Type>  (14) 
IC50

>  <Standard Relation>  (14) 
'='

>  <Standard Units>  (14) 
nM

>  <Standard Value>  (14) 
24.3

>  <Assay ChEMBL ID>  (14) 
CHEMBL3705362

>  <Assay Description>  (14) 
Mobility-Shift kinase assay: Compounds of the examples provided herein were assessed for their ability to inhibit Syk kinase by utilizing Caliper Life Sciences' proprietary LabChip technology. The off-chip incubation mobility-shift kinase assay uses a microfluidic chip to measure the conversion of a fluorescent peptide substrate to a phosphorylated product. The reaction mixture, from a microtiter plate well, is introduced through a capillary sipper onto the chip, where the nonphosphorylated substrate and phosphorylated product are separated by electrophoresis and detected via laser induced fluorescence. The signature of the fluorescence signal over time reveals the extent of the reaction. The phosphorylated product migrates through the chip faster than the non-phosphorylated substrate, and signals from the two forms of the peptide appear as distinct peaks.

>  <BAO Format ID>  (14) 
BAO_0000357

>  <BAO Label>  (14) 
single protein format

>  <Assay Organism>  (14) 
Homo sapiens

>  <Target ChEMBL ID>  (14) 
CHEMBL2599

>  <Target Name>  (14) 
Tyrosine-protein kinase SYK

>  <Target Organism>  (14) 
Homo sapiens

>  <Target Type>  (14) 
SINGLE PROTEIN

>  <Document ChEMBL ID>  (14) 
CHEMBL3639055

>  <Source Description>  (14) 
BindingDB Database

>  <Document Journal>  (14) 
nan

>  <Document Year>  (14) 
2014.0

>  <Active>  (14) 
1.0

>  <bits>  (14) 
<rdkit.DataStructs.cDataStructs.ExplicitBitVect object at 0x00000193F3403840>

>  <Group>  (14) 
G2

$$$$

     RDKit          2D

 28 29  0  0  0  0  0  0  0  0999 V2000
    3.0000    0.0000    0.0000 C   0  0  0  0  0  0  0  0  0  0  0  0
    1.5000    0.0000    0.0000 C   0  0  0  0  0  0  0  0  0  0  0  0
    0.7500   -1.2990    0.0000 C   0  0  0  0  0  0  0  0  0  0  0  0
   -0.7500   -1.2990    0.0000 C   0  0  0  0  0  0  0  0  0  0  0  0
   -1.5000   -2.5981    0.0000 C   0  0  0  0  0  0  0  0  0  0  0  0
   -1.5000    0.0000    0.0000 N   0  0  0  0  0  0  0  0  0  0  0  0
   -0.7500    1.2990    0.0000 C   0  0  0  0  0  0  0  0  0  0  0  0
   -1.5000    2.5981    0.0000 N   0  0  0  0  0  0  0  0  0  0  0  0
   -0.7500    3.8971    0.0000 C   0  0  0  0  0  0  0  0  0  0  0  0
    0.7500    3.8971    0.0000 C   0  0  0  0  0  0  0  0  0  0  0  0
    1.5000    5.1962    0.0000 C   0  0  0  0  0  0  0  0  0  0  0  0
    3.0000    5.1962    0.0000 N   0  0  0  0  0  0  0  0  0  0  0  0
    3.7500    3.8971    0.0000 C   0  0  0  0  0  0  0  0  0  0  0  0
    5.2500    3.8971    0.0000 C   0  0  0  0  0  0  0  0  0  0  0  0
    6.0000    5.1962    0.0000 N   0  0  0  0  0  0  0  0  0  0  0  0
    6.0000    2.5981    0.0000 C   0  0  0  0  0  0  0  0  0  0  0  0
    7.5000    2.5981    0.0000 C   0  0  0  0  0  0  0  0  0  0  0  0
    8.2500    1.2990    0.0000 S   0  0  0  0  0  0  0  0  0  0  0  0
    9.0000    0.0000    0.0000 C   0  0  0  0  0  0  0  0  0  0  0  0
    6.9510    0.5490    0.0000 O   0  0  0  0  0  0  0  0  0  0  0  0
    9.5490    2.0490    0.0000 O   0  0  0  0  0  0  0  0  0  0  0  0
    0.7500    6.4952    0.0000 C   0  0  0  0  0  0  0  0  0  0  0  0
   -0.7500    6.4952    0.0000 N   0  0  0  0  0  0  0  0  0  0  0  0
   -1.5000    5.1962    0.0000 C   0  0  0  0  0  0  0  0  0  0  0  0
   -3.0000    5.1962    0.0000 C   0  0  0  0  0  0  0  0  0  0  0  0
   -3.7500    6.4952    0.0000 N   0  0  0  0  0  0  0  0  0  0  0  0
   -3.7500    3.8971    0.0000 O   0  0  0  0  0  0  0  0  0  0  0  0
    0.7500    1.2990    0.0000 C   0  0  0  0  0  0  0  0  0  0  0  0
  1  2  1  0
  2  3  2  0
  3  4  1  0
  4  5  1  0
  4  6  2  0
  6  7  1  0
  7  8  1  0
  8  9  1  0
  9 10  2  0
 10 11  1  0
 11 12  1  0
 12 13  1  0
 13 14  1  0
 14 15  1  1
 14 16  1  0
 16 17  1  0
 17 18  1  0
 18 19  1  0
 18 20  2  0
 18 21  2  0
 11 22  2  0
 22 23  1  0
 23 24  2  0
 24 25  1  0
 25 26  1  0
 25 27  2  0
  7 28  2  0
 28  2  1  0
 24  9  1  0
M  END
>  <Compound_ID>  (15) 
CHEMBL3415591

>  <Molecule Name>  (15) 
nan

>  <Molecular Weight>  (15) 
406.51

>  <AlogP>  (15) 
1.11

>  <Smiles>  (15) 
Cc1cc(C)nc(Nc2cc(NC[C@@H](N)CCS(C)(=O)=O)cnc2C(N)=O)c1

>  <Standard Type>  (15) 
IC50

>  <Standard Relation>  (15) 
'='

>  <Standard Units>  (15) 
nM

>  <Standard Value>  (15) 
5.0

>  <Assay ChEMBL ID>  (15) 
CHEMBL3420413

>  <Assay Description>  (15) 
Inhibition of full-length GST-tagged human Syk preincubated for 10 mins followed by peptide substrate/ATP addition measured after 45 mins by TR-FRET assay

>  <BAO Format ID>  (15) 
BAO_0000357

>  <BAO Label>  (15) 
single protein format

>  <Assay Organism>  (15) 
Homo sapiens

>  <Target ChEMBL ID>  (15) 
CHEMBL2599

>  <Target Name>  (15) 
Tyrosine-protein kinase SYK

>  <Target Organism>  (15) 
Homo sapiens

>  <Target Type>  (15) 
SINGLE PROTEIN

>  <Document ChEMBL ID>  (15) 
CHEMBL3414497

>  <Source Description>  (15) 
Scientific Literature

>  <Document Journal>  (15) 
J Med Chem

>  <Document Year>  (15) 
2015.0

>  <Active>  (15) 
1.0

>  <bits>  (15) 
<rdkit.DataStructs.cDataStructs.ExplicitBitVect object at 0x00000193F3401620>

>  <Group>  (15) 
G2

$$$$

     RDKit          2D

 29 32  0  0  0  0  0  0  0  0999 V2000
   -4.5556    9.1664    0.0000 C   0  0  0  0  0  0  0  0  0  0  0  0
   -3.4408    8.1628    0.0000 C   0  0  0  0  0  0  0  0  0  0  0  0
   -2.0143    8.6263    0.0000 C   0  0  0  0  0  0  0  0  0  0  0  0
   -0.8995    7.6226    0.0000 C   0  0  0  0  0  0  0  0  0  0  0  0
    0.5271    8.0861    0.0000 C   0  0  0  0  0  0  0  0  0  0  0  0
   -1.2114    6.1554    0.0000 C   0  0  0  0  0  0  0  0  0  0  0  0
   -2.6380    5.6918    0.0000 C   0  0  0  0  0  0  0  0  0  0  0  0
   -2.9499    4.2246    0.0000 N   0  0  0  0  0  0  0  0  0  0  0  0
   -1.8351    3.2209    0.0000 C   0  0  0  0  0  0  0  0  0  0  0  0
   -0.4086    3.6844    0.0000 N   0  0  0  0  0  0  0  0  0  0  0  0
    0.7062    2.6807    0.0000 C   0  0  0  0  0  0  0  0  0  0  0  0
    2.1328    3.1443    0.0000 N   0  0  0  0  0  0  0  0  0  0  0  0
    2.4446    4.6115    0.0000 C   0  0  0  0  0  0  0  0  0  0  0  0
    3.8712    5.0750    0.0000 C   0  0  0  0  0  0  0  0  0  0  0  0
    4.1831    6.5422    0.0000 C   0  0  0  0  0  0  0  0  0  0  0  0
    3.0684    7.5459    0.0000 C   0  0  0  0  0  0  0  0  0  0  0  0
    1.6418    7.0824    0.0000 C   0  0  0  0  0  0  0  0  0  0  0  0
    1.3299    5.6152    0.0000 C   0  0  0  0  0  0  0  0  0  0  0  0
   -0.0967    5.1517    0.0000 N   0  0  0  0  0  0  0  0  0  0  0  0
    0.3943    1.2135    0.0000 N   0  0  0  0  0  0  0  0  0  0  0  0
    1.2760    0.0000    0.0000 C   0  0  0  0  0  0  0  0  0  0  0  0
    0.3943   -1.2135    0.0000 C   0  0  0  0  0  0  0  0  0  0  0  0
   -1.0323   -0.7500    0.0000 N   0  0  0  0  0  0  0  0  0  0  0  0
   -1.0323    0.7500    0.0000 C   0  0  0  0  0  0  0  0  0  0  0  0
   -2.1470    1.7537    0.0000 C   0  0  0  0  0  0  0  0  0  0  0  0
   -3.5736    1.2902    0.0000 C   0  0  0  0  0  0  0  0  0  0  0  0
   -4.6883    2.2939    0.0000 N   0  0  0  0  0  0  0  0  0  0  0  0
   -3.8855   -0.1771    0.0000 O   0  0  0  0  0  0  0  0  0  0  0  0
   -3.7527    6.6955    0.0000 C   0  0  0  0  0  0  0  0  0  0  0  0
  1  2  1  0
  2  3  2  0
  3  4  1  0
  4  5  1  0
  4  6  2  0
  6  7  1  0
  7  8  1  0
  8  9  1  0
  9 10  1  0
 10 11  2  0
 11 12  1  0
 13 12  1  1
 13 14  1  0
 14 15  1  0
 15 16  1  0
 16 17  1  0
 17 18  1  0
 18 19  1  1
 11 20  1  0
 20 21  1  0
 21 22  2  0
 22 23  1  0
 23 24  2  0
 24 25  1  0
 25 26  1  0
 26 27  1  0
 26 28  2  0
  7 29  2  0
 29  2  1  0
 25  9  2  0
 18 13  1  0
 24 20  1  0
M  END
>  <Compound_ID>  (16) 
CHEMBL474655

>  <Molecule Name>  (16) 
nan

>  <Molecular Weight>  (16) 
393.5

>  <AlogP>  (16) 
2.87

>  <Smiles>  (16) 
Cc1cc(C)cc(Nc2nc(N[C@@H]3CCCC[C@@H]3N)n3ccnc3c2C(N)=O)c1

>  <Standard Type>  (16) 
IC50

>  <Standard Relation>  (16) 
'='

>  <Standard Units>  (16) 
nM

>  <Standard Value>  (16) 
6.0

>  <Assay ChEMBL ID>  (16) 
CHEMBL1022010

>  <Assay Description>  (16) 
Inhibition of recombinant Syk

>  <BAO Format ID>  (16) 
BAO_0000357

>  <BAO Label>  (16) 
single protein format

>  <Assay Organism>  (16) 
None

>  <Target ChEMBL ID>  (16) 
CHEMBL2599

>  <Target Name>  (16) 
Tyrosine-protein kinase SYK

>  <Target Organism>  (16) 
Homo sapiens

>  <Target Type>  (16) 
SINGLE PROTEIN

>  <Document ChEMBL ID>  (16) 
CHEMBL1138583

>  <Source Description>  (16) 
Scientific Literature

>  <Document Journal>  (16) 
Bioorg Med Chem Lett

>  <Document Year>  (16) 
2009.0

>  <Active>  (16) 
1.0

>  <bits>  (16) 
<rdkit.DataStructs.cDataStructs.ExplicitBitVect object at 0x00000193F3402A40>

>  <Group>  (16) 
G2

$$$$

     RDKit          2D

 29 33  0  0  0  0  0  0  0  0999 V2000
    3.0000   -7.7942    0.0000 N   0  0  0  0  0  0  0  0  0  0  0  0
    1.5000   -7.7942    0.0000 C   0  0  0  0  0  0  0  0  0  0  0  0
    0.7500   -9.0933    0.0000 C   0  0  0  0  0  0  0  0  0  0  0  0
   -0.7500   -9.0933    0.0000 C   0  0  0  0  0  0  0  0  0  0  0  0
   -1.5000   -7.7942    0.0000 C   0  0  0  0  0  0  0  0  0  0  0  0
   -0.7500   -6.4952    0.0000 C   0  0  0  0  0  0  0  0  0  0  0  0
    0.7500   -6.4952    0.0000 C   0  0  0  0  0  0  0  0  0  0  0  0
    1.5000   -5.1962    0.0000 N   0  0  0  0  0  0  0  0  0  0  0  0
    0.7500   -3.8971    0.0000 C   0  0  0  0  0  0  0  0  0  0  0  0
    1.5000   -2.5981    0.0000 C   0  0  0  0  0  0  0  0  0  0  0  0
    0.7500   -1.2990    0.0000 C   0  0  0  0  0  0  0  0  0  0  0  0
    1.5000    0.0000    0.0000 N   0  0  0  0  0  0  0  0  0  0  0  0
    0.7500    1.2990    0.0000 C   0  0  0  0  0  0  0  0  0  0  0  0
   -0.7500    1.2990    0.0000 N   0  0  0  0  0  0  0  0  0  0  0  0
   -1.5000    0.0000    0.0000 C   0  0  0  0  0  0  0  0  0  0  0  0
   -3.0000    0.0000    0.0000 O   0  0  0  0  0  0  0  0  0  0  0  0
   -0.7500   -1.2990    0.0000 C   0  0  0  0  0  0  0  0  0  0  0  0
   -1.5000   -2.5981    0.0000 C   0  0  0  0  0  0  0  0  0  0  0  0
   -3.0000   -2.5981    0.0000 N   0  0  0  0  0  0  0  0  0  0  0  0
   -3.7500   -3.8971    0.0000 C   0  0  0  0  0  0  0  0  0  0  0  0
   -3.0000   -5.1962    0.0000 C   0  0  0  0  0  0  0  0  0  0  0  0
   -3.7500   -6.4952    0.0000 C   0  0  0  0  0  0  0  0  0  0  0  0
   -5.2500   -6.4952    0.0000 C   0  0  0  0  0  0  0  0  0  0  0  0
   -6.0000   -5.1962    0.0000 C   0  0  0  0  0  0  0  0  0  0  0  0
   -7.4672   -4.8843    0.0000 C   0  0  0  0  0  0  0  0  0  0  0  0
   -7.6240   -3.3925    0.0000 C   0  0  0  0  0  0  0  0  0  0  0  0
   -6.2537   -2.7824    0.0000 N   0  0  0  0  0  0  0  0  0  0  0  0
   -5.2500   -3.8971    0.0000 C   0  0  0  0  0  0  0  0  0  0  0  0
   -0.7500   -3.8971    0.0000 N   0  0  0  0  0  0  0  0  0  0  0  0
  2  1  1  1
  2  3  1  0
  3  4  1  0
  4  5  1  0
  5  6  1  0
  6  7  1  0
  7  8  1  1
  8  9  1  0
  9 10  2  0
 10 11  1  0
 11 12  1  0
 12 13  2  0
 13 14  1  0
 14 15  1  0
 15 16  2  0
 15 17  1  0
 17 18  1  0
 18 19  1  0
 19 20  1  0
 20 21  2  0
 21 22  1  0
 22 23  2  0
 23 24  1  0
 24 25  1  0
 25 26  2  0
 26 27  1  0
 27 28  1  0
 18 29  2  0
  7  2  1  0
 29  9  1  0
 17 11  2  0
 28 20  1  0
 28 24  2  0
M  END
>  <Compound_ID>  (17) 
CHEMBL3262356

>  <Molecule Name>  (17) 
nan

>  <Molecular Weight>  (17) 
389.46

>  <AlogP>  (17) 
3.22

>  <Smiles>  (17) 
N[C@H]1CCCC[C@H]1Nc1cc2nc[nH]c(=O)c2c(Nc2cccc3cc[nH]c23)n1

>  <Standard Type>  (17) 
IC50

>  <Standard Relation>  (17) 
'='

>  <Standard Units>  (17) 
nM

>  <Standard Value>  (17) 
4.0

>  <Assay ChEMBL ID>  (17) 
CHEMBL3268708

>  <Assay Description>  (17) 
Inhibition of Syk (unknown origin) using 4 uM peptide assessed as product formation after 60 mins incubation by microfluidic mobility shift assay

>  <BAO Format ID>  (17) 
BAO_0000357

>  <BAO Label>  (17) 
single protein format

>  <Assay Organism>  (17) 
Homo sapiens

>  <Target ChEMBL ID>  (17) 
CHEMBL2599

>  <Target Name>  (17) 
Tyrosine-protein kinase SYK

>  <Target Organism>  (17) 
Homo sapiens

>  <Target Type>  (17) 
SINGLE PROTEIN

>  <Document ChEMBL ID>  (17) 
CHEMBL3259804

>  <Source Description>  (17) 
Scientific Literature

>  <Document Journal>  (17) 
Bioorg Med Chem Lett

>  <Document Year>  (17) 
2014.0

>  <Active>  (17) 
1.0

>  <bits>  (17) 
<rdkit.DataStructs.cDataStructs.ExplicitBitVect object at 0x00000193F3403680>

>  <Group>  (17) 
G2

$$$$

     RDKit          2D

 26 28  0  0  0  0  0  0  0  0999 V2000
    3.0000    0.0000    0.0000 C   0  0  0  0  0  0  0  0  0  0  0  0
    1.5000    0.0000    0.0000 C   0  0  0  0  0  0  0  0  0  0  0  0
    0.7500   -1.2990    0.0000 C   0  0  0  0  0  0  0  0  0  0  0  0
   -0.7500   -1.2990    0.0000 C   0  0  0  0  0  0  0  0  0  0  0  0
   -1.5000    0.0000    0.0000 C   0  0  0  0  0  0  0  0  0  0  0  0
   -3.0000    0.0000    0.0000 O   0  0  0  0  0  0  0  0  0  0  0  0
   -0.7500    1.2990    0.0000 C   0  0  0  0  0  0  0  0  0  0  0  0
    0.7500    1.2990    0.0000 C   0  0  0  0  0  0  0  0  0  0  0  0
    1.5000    2.5981    0.0000 N   0  0  0  0  0  0  0  0  0  0  0  0
    0.7500    3.8971    0.0000 C   0  0  0  0  0  0  0  0  0  0  0  0
    1.5000    5.1962    0.0000 C   0  0  0  0  0  0  0  0  0  0  0  0
    0.7500    6.4952    0.0000 C   0  0  0  0  0  0  0  0  0  0  0  0
   -0.7500    6.4952    0.0000 N   0  0  0  0  0  0  0  0  0  0  0  0
   -1.5000    5.1962    0.0000 C   0  0  0  0  0  0  0  0  0  0  0  0
   -3.0000    5.1962    0.0000 N   0  0  0  0  0  0  0  0  0  0  0  0
   -3.7500    6.4952    0.0000 C   0  0  0  0  0  0  0  0  0  0  0  0
   -3.0000    7.7942    0.0000 C   0  0  0  0  0  0  0  0  0  0  0  0
   -3.7500    9.0933    0.0000 C   0  0  0  0  0  0  0  0  0  0  0  0
   -5.2500    9.0933    0.0000 C   0  0  0  0  0  0  0  0  0  0  0  0
   -6.0000    7.7942    0.0000 C   0  0  0  0  0  0  0  0  0  0  0  0
   -7.5000    7.7942    0.0000 S   0  0  0  0  0  0  0  0  0  0  0  0
   -9.0000    7.7942    0.0000 N   0  0  0  0  0  0  0  0  0  0  0  0
   -7.5000    9.2942    0.0000 O   0  0  0  0  0  0  0  0  0  0  0  0
   -7.5000    6.2942    0.0000 O   0  0  0  0  0  0  0  0  0  0  0  0
   -5.2500    6.4952    0.0000 C   0  0  0  0  0  0  0  0  0  0  0  0
   -0.7500    3.8971    0.0000 N   0  0  0  0  0  0  0  0  0  0  0  0
  1  2  1  0
  2  3  2  0
  3  4  1  0
  4  5  2  0
  5  6  1  0
  5  7  1  0
  7  8  2  0
  8  9  1  0
  9 10  1  0
 10 11  2  0
 11 12  1  0
 12 13  2  0
 13 14  1  0
 14 15  1  0
 15 16  1  0
 16 17  2  0
 17 18  1  0
 18 19  2  0
 19 20  1  0
 20 21  1  0
 21 22  1  0
 21 23  2  0
 21 24  2  0
 20 25  2  0
 14 26  2  0
  8  2  1  0
 26 10  1  0
 25 16  1  0
M  END
>  <Compound_ID>  (18) 
CHEMBL249317

>  <Molecule Name>  (18) 
nan

>  <Molecular Weight>  (18) 
371.42

>  <AlogP>  (18) 
2.63

>  <Smiles>  (18) 
Cc1ccc(O)cc1Nc1ccnc(Nc2cccc(S(N)(=O)=O)c2)n1

>  <Standard Type>  (18) 
IC50

>  <Standard Relation>  (18) 
'='

>  <Standard Units>  (18) 
nM

>  <Standard Value>  (18) 
4.0

>  <Assay ChEMBL ID>  (18) 
CHEMBL923140

>  <Assay Description>  (18) 
Inhibition of Syk

>  <BAO Format ID>  (18) 
BAO_0000357

>  <BAO Label>  (18) 
single protein format

>  <Assay Organism>  (18) 
None

>  <Target ChEMBL ID>  (18) 
CHEMBL2599

>  <Target Name>  (18) 
Tyrosine-protein kinase SYK

>  <Target Organism>  (18) 
Homo sapiens

>  <Target Type>  (18) 
SINGLE PROTEIN

>  <Document ChEMBL ID>  (18) 
CHEMBL1140683

>  <Source Description>  (18) 
Scientific Literature

>  <Document Journal>  (18) 
Bioorg Med Chem Lett

>  <Document Year>  (18) 
2007.0

>  <Active>  (18) 
1.0

>  <bits>  (18) 
<rdkit.DataStructs.cDataStructs.ExplicitBitVect object at 0x00000193F34036F0>

>  <Group>  (18) 
G2

$$$$

     RDKit          2D

 30 33  0  0  0  0  0  0  0  0999 V2000
    3.7500   -1.2990    0.0000 C   0  0  0  0  0  0  0  0  0  0  0  0
    3.0000    0.0000    0.0000 O   0  0  0  0  0  0  0  0  0  0  0  0
    1.5000    0.0000    0.0000 C   0  0  0  0  0  0  0  0  0  0  0  0
    0.7500   -1.2990    0.0000 C   0  0  0  0  0  0  0  0  0  0  0  0
   -0.7500   -1.2990    0.0000 C   0  0  0  0  0  0  0  0  0  0  0  0
   -1.5000    0.0000    0.0000 C   0  0  0  0  0  0  0  0  0  0  0  0
   -0.7500    1.2990    0.0000 C   0  0  0  0  0  0  0  0  0  0  0  0
    0.7500    1.2990    0.0000 C   0  0  0  0  0  0  0  0  0  0  0  0
   -1.7537    2.4138    0.0000 C   0  0  0  0  0  0  0  0  0  0  0  0
   -1.4418    3.8810    0.0000 C   0  0  0  0  0  0  0  0  0  0  0  0
   -2.5565    4.8847    0.0000 C   0  0  0  0  0  0  0  0  0  0  0  0
   -4.0238    4.5728    0.0000 C   0  0  0  0  0  0  0  0  0  0  0  0
   -4.6339    3.2025    0.0000 O   0  0  0  0  0  0  0  0  0  0  0  0
   -4.7738    5.8718    0.0000 N   0  0  0  0  0  0  0  0  0  0  0  0
   -3.7701    6.9866    0.0000 C   0  0  0  0  0  0  0  0  0  0  0  0
   -3.9269    8.4783    0.0000 C   0  0  0  0  0  0  0  0  0  0  0  0
   -2.7133    9.3600    0.0000 C   0  0  0  0  0  0  0  0  0  0  0  0
   -1.3430    8.7499    0.0000 C   0  0  0  0  0  0  0  0  0  0  0  0
   -0.1295    9.6316    0.0000 S   0  0  0  0  0  0  0  0  0  0  0  0
    1.0840   10.5133    0.0000 N   0  0  0  0  0  0  0  0  0  0  0  0
    0.7522    8.4181    0.0000 O   0  0  0  0  0  0  0  0  0  0  0  0
   -1.0112   10.8451    0.0000 O   0  0  0  0  0  0  0  0  0  0  0  0
   -1.1862    7.2581    0.0000 C   0  0  0  0  0  0  0  0  0  0  0  0
   -2.3998    6.3765    0.0000 C   0  0  0  0  0  0  0  0  0  0  0  0
   -3.1240    1.8037    0.0000 C   0  0  0  0  0  0  0  0  0  0  0  0
   -2.9672    0.3119    0.0000 N   0  0  0  0  0  0  0  0  0  0  0  0
   -4.0819   -0.6918    0.0000 C   0  0  0  0  0  0  0  0  0  0  0  0
   -5.5085   -0.2283    0.0000 C   0  0  0  0  0  0  0  0  0  0  0  0
   -6.6232   -1.2320    0.0000 C   0  0  0  0  0  0  0  0  0  0  0  0
   -8.0498   -0.7685    0.0000 O   0  0  0  0  0  0  0  0  0  0  0  0
  1  2  1  0
  2  3  1  0
  3  4  2  0
  4  5  1  0
  5  6  2  0
  6  7  1  0
  7  8  2  0
  7  9  1  0
  9 10  1  0
 10 11  2  0
 11 12  1  0
 12 13  2  0
 12 14  1  0
 14 15  1  0
 15 16  2  0
 16 17  1  0
 17 18  2  0
 18 19  1  0
 19 20  1  0
 19 21  2  0
 19 22  2  0
 18 23  1  0
 23 24  2  0
  9 25  2  0
 25 26  1  0
 26 27  1  0
 27 28  1  0
 28 29  1  0
 29 30  1  0
  8  3  1  0
 24 11  1  0
 26  6  1  0
 24 15  1  0
M  END
>  <Compound_ID>  (19) 
CHEMBL107061

>  <Molecule Name>  (19) 
nan

>  <Molecular Weight>  (19) 
427.48

>  <AlogP>  (19) 
2.17

>  <Smiles>  (19) 
COc1ccc2c(c1)c(/C=C1\C(=O)Nc3ccc(S(N)(=O)=O)cc31)cn2CCCO

>  <Standard Type>  (19) 
IC50

>  <Standard Relation>  (19) 
'='

>  <Standard Units>  (19) 
nM

>  <Standard Value>  (19) 
32.0

>  <Assay ChEMBL ID>  (19) 
CHEMBL1022010

>  <Assay Description>  (19) 
Inhibition of recombinant Syk

>  <BAO Format ID>  (19) 
BAO_0000357

>  <BAO Label>  (19) 
single protein format

>  <Assay Organism>  (19) 
None

>  <Target ChEMBL ID>  (19) 
CHEMBL2599

>  <Target Name>  (19) 
Tyrosine-protein kinase SYK

>  <Target Organism>  (19) 
Homo sapiens

>  <Target Type>  (19) 
SINGLE PROTEIN

>  <Document ChEMBL ID>  (19) 
CHEMBL1138583

>  <Source Description>  (19) 
Scientific Literature

>  <Document Journal>  (19) 
Bioorg Med Chem Lett

>  <Document Year>  (19) 
2009.0

>  <Active>  (19) 
1.0

>  <bits>  (19) 
<rdkit.DataStructs.cDataStructs.ExplicitBitVect object at 0x00000193F3401540>

>  <Group>  (19) 
G2

$$$$

     RDKit          2D

 28 30  0  0  0  0  0  0  0  0999 V2000
    8.2500  -11.6913    0.0000 C   0  0  0  0  0  0  0  0  0  0  0  0
    7.5000  -10.3923    0.0000 N   0  0  0  0  0  0  0  0  0  0  0  0
    8.2500   -9.0933    0.0000 C   0  0  0  0  0  0  0  0  0  0  0  0
    6.0000  -10.3923    0.0000 C   0  0  0  0  0  0  0  0  0  0  0  0
    5.2500   -9.0933    0.0000 C   0  0  0  0  0  0  0  0  0  0  0  0
    3.7500   -9.0933    0.0000 N   0  0  0  0  0  0  0  0  0  0  0  0
    3.0000  -10.3923    0.0000 C   0  0  0  0  0  0  0  0  0  0  0  0
    3.0000   -7.7942    0.0000 C   0  0  0  0  0  0  0  0  0  0  0  0
    1.5000   -7.7942    0.0000 C   0  0  0  0  0  0  0  0  0  0  0  0
    0.7500   -6.4952    0.0000 C   0  0  0  0  0  0  0  0  0  0  0  0
    1.5000   -5.1962    0.0000 C   0  0  0  0  0  0  0  0  0  0  0  0
    0.7500   -3.8971    0.0000 C   0  0  0  0  0  0  0  0  0  0  0  0
    1.5000   -2.5981    0.0000 C   0  0  0  0  0  0  0  0  0  0  0  0
    0.7500   -1.2990    0.0000 C   0  0  0  0  0  0  0  0  0  0  0  0
    1.5000    0.0000    0.0000 N   0  0  0  0  0  0  0  0  0  0  0  0
    0.7500    1.2990    0.0000 C   0  0  0  0  0  0  0  0  0  0  0  0
   -0.7500    1.2990    0.0000 C   0  0  0  0  0  0  0  0  0  0  0  0
   -1.5000    0.0000    0.0000 C   0  0  0  0  0  0  0  0  0  0  0  0
   -0.7500   -1.2990    0.0000 C   0  0  0  0  0  0  0  0  0  0  0  0
   -1.5000   -2.5981    0.0000 C   0  0  0  0  0  0  0  0  0  0  0  0
   -3.0000   -2.5981    0.0000 N   0  0  0  0  0  0  0  0  0  0  0  0
   -3.7500   -3.8971    0.0000 C   0  0  0  0  0  0  0  0  0  0  0  0
   -5.2500   -3.8971    0.0000 C   0  0  0  0  0  0  0  0  0  0  0  0
   -6.0000   -5.1962    0.0000 C   0  0  0  0  0  0  0  0  0  0  0  0
   -7.5000   -5.1962    0.0000 N   0  0  0  0  0  0  0  0  0  0  0  0
   -0.7500   -3.8971    0.0000 N   0  0  0  0  0  0  0  0  0  0  0  0
    3.0000   -5.1962    0.0000 C   0  0  0  0  0  0  0  0  0  0  0  0
    3.7500   -6.4952    0.0000 C   0  0  0  0  0  0  0  0  0  0  0  0
  1  2  1  0
  2  3  1  0
  2  4  1  0
  4  5  1  0
  5  6  1  0
  6  7  1  0
  6  8  1  0
  8  9  2  0
  9 10  1  0
 10 11  2  0
 11 12  1  0
 12 13  2  0
 13 14  1  0
 14 15  2  0
 15 16  1  0
 16 17  2  0
 17 18  1  0
 18 19  2  0
 19 20  1  0
 20 21  1  0
 21 22  1  0
 22 23  1  0
 23 24  1  0
 24 25  1  0
 20 26  2  0
 11 27  1  0
 27 28  2  0
 28  8  1  0
 26 12  1  0
 19 14  1  0
M  END
>  <Compound_ID>  (20) 
CHEMBL285889

>  <Molecule Name>  (20) 
nan

>  <Molecular Weight>  (20) 
378.52

>  <AlogP>  (20) 
3.06

>  <Smiles>  (20) 
CN(C)CCN(C)c1ccc(-c2cc3ncccc3c(NCCCN)n2)cc1

>  <Standard Type>  (20) 
IC50

>  <Standard Relation>  (20) 
'='

>  <Standard Units>  (20) 
nM

>  <Standard Value>  (20) 
71.0

>  <Assay ChEMBL ID>  (20) 
CHEMBL1022010

>  <Assay Description>  (20) 
Inhibition of recombinant Syk

>  <BAO Format ID>  (20) 
BAO_0000357

>  <BAO Label>  (20) 
single protein format

>  <Assay Organism>  (20) 
None

>  <Target ChEMBL ID>  (20) 
CHEMBL2599

>  <Target Name>  (20) 
Tyrosine-protein kinase SYK

>  <Target Organism>  (20) 
Homo sapiens

>  <Target Type>  (20) 
SINGLE PROTEIN

>  <Document ChEMBL ID>  (20) 
CHEMBL1138583

>  <Source Description>  (20) 
Scientific Literature

>  <Document Journal>  (20) 
Bioorg Med Chem Lett

>  <Document Year>  (20) 
2009.0

>  <Active>  (20) 
1.0

>  <bits>  (20) 
<rdkit.DataStructs.cDataStructs.ExplicitBitVect object at 0x00000193F3403290>

>  <Group>  (20) 
G2

$$$$

     RDKit          2D

 28 30  0  0  0  0  0  0  0  0999 V2000
    3.0000   -1.5000    0.0000 C   0  0  0  0  0  0  0  0  0  0  0  0
    3.0000    0.0000    0.0000 C   0  0  0  0  0  0  0  0  0  0  0  0
    3.0000    1.5000    0.0000 C   0  0  0  0  0  0  0  0  0  0  0  0
    4.5000    0.0000    0.0000 C   0  0  0  0  0  0  0  0  0  0  0  0
    1.5000    0.0000    0.0000 C   0  0  0  0  0  0  0  0  0  0  0  0
    0.7500   -1.2990    0.0000 C   0  0  0  0  0  0  0  0  0  0  0  0
   -0.7500   -1.2990    0.0000 C   0  0  0  0  0  0  0  0  0  0  0  0
   -1.5000    0.0000    0.0000 C   0  0  0  0  0  0  0  0  0  0  0  0
   -0.7500    1.2990    0.0000 C   0  0  0  0  0  0  0  0  0  0  0  0
   -1.5000    2.5981    0.0000 N   0  0  0  0  0  0  0  0  0  0  0  0
   -0.7500    3.8971    0.0000 C   0  0  0  0  0  0  0  0  0  0  0  0
    0.7500    3.8971    0.0000 C   0  0  0  0  0  0  0  0  0  0  0  0
    1.5000    5.1962    0.0000 C   0  0  0  0  0  0  0  0  0  0  0  0
    3.0000    5.1962    0.0000 N   0  0  0  0  0  0  0  0  0  0  0  0
    3.7500    6.4952    0.0000 C   0  0  0  0  0  0  0  0  0  0  0  0
    5.2500    6.4952    0.0000 C   0  0  0  0  0  0  0  0  0  0  0  0
    6.0000    7.7942    0.0000 C   0  0  0  0  0  0  0  0  0  0  0  0
    5.2500    9.0933    0.0000 C   0  0  0  0  0  0  0  0  0  0  0  0
    3.7500    9.0933    0.0000 C   0  0  0  0  0  0  0  0  0  0  0  0
    3.0000    7.7942    0.0000 C   0  0  0  0  0  0  0  0  0  0  0  0
    1.5000    7.7942    0.0000 N   0  0  0  0  0  0  0  0  0  0  0  0
    0.7500    6.4952    0.0000 N   0  0  0  0  0  0  0  0  0  0  0  0
   -0.7500    6.4952    0.0000 N   0  0  0  0  0  0  0  0  0  0  0  0
   -1.5000    5.1962    0.0000 C   0  0  0  0  0  0  0  0  0  0  0  0
   -3.0000    5.1962    0.0000 C   0  0  0  0  0  0  0  0  0  0  0  0
   -3.7500    6.4952    0.0000 N   0  0  0  0  0  0  0  0  0  0  0  0
   -3.7500    3.8971    0.0000 O   0  0  0  0  0  0  0  0  0  0  0  0
    0.7500    1.2990    0.0000 N   0  0  0  0  0  0  0  0  0  0  0  0
  1  2  1  0
  2  3  1  0
  2  4  1  0
  2  5  1  0
  5  6  2  0
  6  7  1  0
  7  8  2  0
  8  9  1  0
  9 10  1  0
 10 11  1  0
 11 12  2  0
 12 13  1  0
 13 14  1  0
 15 14  1  1
 15 16  1  0
 16 17  1  0
 17 18  1  0
 18 19  1  0
 19 20  1  0
 20 21  1  1
 13 22  2  0
 22 23  1  0
 23 24  2  0
 24 25  1  0
 25 26  1  0
 25 27  2  0
  9 28  2  0
 28  5  1  0
 24 11  1  0
 20 15  1  0
M  END
>  <Compound_ID>  (21) 
CHEMBL3237571

>  <Molecule Name>  (21) 
nan

>  <Molecular Weight>  (21) 
383.5

>  <AlogP>  (21) 
2.69

>  <Smiles>  (21) 
CC(C)(C)c1cccc(Nc2cc(N[C@@H]3CCCC[C@@H]3N)nnc2C(N)=O)n1

>  <Standard Type>  (21) 
IC50

>  <Standard Relation>  (21) 
'='

>  <Standard Units>  (21) 
nM

>  <Standard Value>  (21) 
39.81

>  <Assay ChEMBL ID>  (21) 
CHEMBL3240906

>  <Assay Description>  (21) 
Inhibition of human SYK (360 to 635) using biotin-EPEGDYEEVLE as substrate preincubated for 10 mins followed by substrate/ATP/[33Pgamma]ATP addition measured after 15 mins by scintillation counting analysis

>  <BAO Format ID>  (21) 
BAO_0000357

>  <BAO Label>  (21) 
single protein format

>  <Assay Organism>  (21) 
Homo sapiens

>  <Target ChEMBL ID>  (21) 
CHEMBL2599

>  <Target Name>  (21) 
Tyrosine-protein kinase SYK

>  <Target Organism>  (21) 
Homo sapiens

>  <Target Type>  (21) 
SINGLE PROTEIN

>  <Document ChEMBL ID>  (21) 
CHEMBL3232975

>  <Source Description>  (21) 
Scientific Literature

>  <Document Journal>  (21) 
J Med Chem

>  <Document Year>  (21) 
2014.0

>  <Active>  (21) 
1.0

>  <bits>  (21) 
<rdkit.DataStructs.cDataStructs.ExplicitBitVect object at 0x00000193F34013F0>

>  <Group>  (21) 
G2

$$$$

     RDKit          2D

 29 32  0  0  0  0  0  0  0  0999 V2000
   -7.5415    1.3668    0.0000 F   0  0  0  0  0  0  0  0  0  0  0  0
   -6.1149    1.8303    0.0000 C   0  0  0  0  0  0  0  0  0  0  0  0
   -6.5784    3.2569    0.0000 F   0  0  0  0  0  0  0  0  0  0  0  0
   -5.6514    0.4038    0.0000 F   0  0  0  0  0  0  0  0  0  0  0  0
   -4.6883    2.2939    0.0000 C   0  0  0  0  0  0  0  0  0  0  0  0
   -3.5736    1.2902    0.0000 N   0  0  0  0  0  0  0  0  0  0  0  0
   -2.1470    1.7537    0.0000 C   0  0  0  0  0  0  0  0  0  0  0  0
   -1.8351    3.2209    0.0000 N   0  0  0  0  0  0  0  0  0  0  0  0
   -0.4086    3.6844    0.0000 C   0  0  0  0  0  0  0  0  0  0  0  0
   -0.0967    5.1517    0.0000 N   0  0  0  0  0  0  0  0  0  0  0  0
    1.3299    5.6152    0.0000 C   0  0  0  0  0  0  0  0  0  0  0  0
    2.4446    4.6115    0.0000 C   0  0  0  0  0  0  0  0  0  0  0  0
    3.8712    5.0750    0.0000 C   0  0  0  0  0  0  0  0  0  0  0  0
    4.1831    6.5422    0.0000 C   0  0  0  0  0  0  0  0  0  0  0  0
    5.6097    7.0058    0.0000 N   0  0  0  0  0  0  0  0  0  0  0  0
    6.7244    6.0021    0.0000 C   0  0  0  0  0  0  0  0  0  0  0  0
    8.1510    6.4656    0.0000 C   0  0  0  0  0  0  0  0  0  0  0  0
    8.4628    7.9328    0.0000 O   0  0  0  0  0  0  0  0  0  0  0  0
    7.3481    8.9365    0.0000 C   0  0  0  0  0  0  0  0  0  0  0  0
    5.9215    8.4730    0.0000 C   0  0  0  0  0  0  0  0  0  0  0  0
    3.0684    7.5459    0.0000 C   0  0  0  0  0  0  0  0  0  0  0  0
    3.3802    9.0132    0.0000 Cl  0  0  0  0  0  0  0  0  0  0  0  0
    1.6418    7.0824    0.0000 C   0  0  0  0  0  0  0  0  0  0  0  0
    0.7062    2.6807    0.0000 N   0  0  0  0  0  0  0  0  0  0  0  0
    0.3943    1.2135    0.0000 C   0  0  0  0  0  0  0  0  0  0  0  0
    1.2760    0.0000    0.0000 C   0  0  0  0  0  0  0  0  0  0  0  0
    0.3943   -1.2135    0.0000 C   0  0  0  0  0  0  0  0  0  0  0  0
   -1.0323   -0.7500    0.0000 O   0  0  0  0  0  0  0  0  0  0  0  0
   -1.0323    0.7500    0.0000 C   0  0  0  0  0  0  0  0  0  0  0  0
  1  2  1  0
  2  3  1  0
  2  4  1  0
  2  5  1  0
  5  6  1  0
  6  7  1  0
  7  8  2  0
  8  9  1  0
  9 10  1  0
 10 11  1  0
 11 12  2  0
 12 13  1  0
 13 14  2  0
 14 15  1  0
 15 16  1  0
 16 17  1  0
 17 18  1  0
 18 19  1  0
 19 20  1  0
 14 21  1  0
 21 22  1  0
 21 23  2  0
  9 24  2  0
 24 25  1  0
 25 26  1  0
 26 27  2  0
 27 28  1  0
 28 29  1  0
 29  7  1  0
 23 11  1  0
 29 25  2  0
 20 15  1  0
M  END
>  <Compound_ID>  (22) 
CHEMBL4078893

>  <Molecule Name>  (22) 
nan

>  <Molecular Weight>  (22) 
427.81

>  <AlogP>  (22) 
4.43

>  <Smiles>  (22) 
FC(F)(F)CNc1nc(Nc2ccc(N3CCOCC3)c(Cl)c2)nc2ccoc12

>  <Standard Type>  (22) 
IC50

>  <Standard Relation>  (22) 
'='

>  <Standard Units>  (22) 
nM

>  <Standard Value>  (22) 
61.0

>  <Assay ChEMBL ID>  (22) 
CHEMBL4007647

>  <Assay Description>  (22) 
Inhibition of C-terminal His-tagged Syk catalytic domain (356 to 635 residues) (unknown origin) using biotin-TYR1 as substrate after 60 mins by TR-FRET assay

>  <BAO Format ID>  (22) 
BAO_0000357

>  <BAO Label>  (22) 
single protein format

>  <Assay Organism>  (22) 
Homo sapiens

>  <Target ChEMBL ID>  (22) 
CHEMBL2599

>  <Target Name>  (22) 
Tyrosine-protein kinase SYK

>  <Target Organism>  (22) 
Homo sapiens

>  <Target Type>  (22) 
SINGLE PROTEIN

>  <Document ChEMBL ID>  (22) 
CHEMBL4007384

>  <Source Description>  (22) 
Scientific Literature

>  <Document Journal>  (22) 
Bioorg Med Chem Lett

>  <Document Year>  (22) 
2016.0

>  <Active>  (22) 
1.0

>  <bits>  (22) 
<rdkit.DataStructs.cDataStructs.ExplicitBitVect object at 0x00000193F3403D80>

>  <Group>  (22) 
G2

$$$$

     RDKit          2D

 29 31  0  0  0  0  0  0  0  0999 V2000
    4.3158   13.4148    0.0000 C   0  0  0  0  0  0  0  0  0  0  0  0
    4.0040   11.9476    0.0000 O   0  0  0  0  0  0  0  0  0  0  0  0
    2.5774   11.4841    0.0000 C   0  0  0  0  0  0  0  0  0  0  0  0
    2.2655   10.0169    0.0000 C   0  0  0  0  0  0  0  0  0  0  0  0
    3.3802    9.0132    0.0000 N   0  0  0  0  0  0  0  0  0  0  0  0
    0.8389    9.5533    0.0000 C   0  0  0  0  0  0  0  0  0  0  0  0
   -0.2758   10.5570    0.0000 C   0  0  0  0  0  0  0  0  0  0  0  0
    0.5271    8.0861    0.0000 N   0  0  0  0  0  0  0  0  0  0  0  0
    1.6418    7.0824    0.0000 C   0  0  0  0  0  0  0  0  0  0  0  0
    3.0684    7.5459    0.0000 N   0  0  0  0  0  0  0  0  0  0  0  0
    4.1831    6.5422    0.0000 N   0  0  0  0  0  0  0  0  0  0  0  0
    3.8712    5.0750    0.0000 C   0  0  0  0  0  0  0  0  0  0  0  0
    4.9859    4.0713    0.0000 C   0  0  0  0  0  0  0  0  0  0  0  0
    6.4125    4.5348    0.0000 N   0  0  0  0  0  0  0  0  0  0  0  0
    4.6741    2.6041    0.0000 O   0  0  0  0  0  0  0  0  0  0  0  0
    2.4446    4.6115    0.0000 C   0  0  0  0  0  0  0  0  0  0  0  0
    2.1328    3.1443    0.0000 N   0  0  0  0  0  0  0  0  0  0  0  0
    0.7062    2.6807    0.0000 C   0  0  0  0  0  0  0  0  0  0  0  0
   -0.4086    3.6844    0.0000 C   0  0  0  0  0  0  0  0  0  0  0  0
   -1.8351    3.2209    0.0000 C   0  0  0  0  0  0  0  0  0  0  0  0
   -2.9499    4.2246    0.0000 C   0  0  0  0  0  0  0  0  0  0  0  0
   -2.1470    1.7537    0.0000 C   0  0  0  0  0  0  0  0  0  0  0  0
   -1.0323    0.7500    0.0000 C   0  0  0  0  0  0  0  0  0  0  0  0
    0.3943    1.2135    0.0000 C   0  0  0  0  0  0  0  0  0  0  0  0
    1.2760    0.0000    0.0000 C   0  0  0  0  0  0  0  0  0  0  0  0
    0.3943   -1.2135    0.0000 C   0  0  0  0  0  0  0  0  0  0  0  0
   -1.0323   -0.7500    0.0000 N   0  0  0  0  0  0  0  0  0  0  0  0
   -2.2458   -1.6317    0.0000 C   0  0  0  0  0  0  0  0  0  0  0  0
    1.3299    5.6152    0.0000 N   0  0  0  0  0  0  0  0  0  0  0  0
  1  2  1  0
  2  3  1  0
  3  4  1  0
  4  5  1  6
  4  6  1  0
  6  7  1  6
  6  8  1  0
  8  9  1  0
  9 10  2  0
 10 11  1  0
 11 12  2  0
 12 13  1  0
 13 14  1  0
 13 15  2  0
 12 16  1  0
 16 17  1  0
 17 18  1  0
 18 19  2  0
 19 20  1  0
 20 21  1  0
 20 22  2  0
 22 23  1  0
 23 24  2  0
 24 25  1  0
 25 26  2  0
 26 27  1  0
 27 28  1  0
 16 29  2  0
 29  9  1  0
 24 18  1  0
 27 23  1  0
M  END
>  <Compound_ID>  (23) 
CHEMBL4106498

>  <Molecule Name>  (23) 
nan

>  <Molecular Weight>  (23) 
398.47

>  <AlogP>  (23) 
1.29

>  <Smiles>  (23) 
COC[C@H](N)[C@@H](C)Nc1nnc(C(N)=O)c(Nc2cc(C)cc3c2ccn3C)n1

>  <Standard Type>  (23) 
IC50

>  <Standard Relation>  (23) 
'='

>  <Standard Units>  (23) 
nM

>  <Standard Value>  (23) 
0.35

>  <Assay ChEMBL ID>  (23) 
CHEMBL3887308

>  <Assay Description>  (23) 
Syk Kinase Inhibition Assay: The in vitro inhibitory activity of the compound of the present invention against Syk kinase activity was assayed under the following conditions: the purified human Syk protein used in the test were purchased from Carna Biosciences, Inc. For the inhibitory activity assay on the compound, the compound of the present invention was first serially diluted with dimethyl sulfoxide (DMSO). Next, the purified human Syk protein FL-Peptide 22 (final concentration: 1 uM) (Caliper Life Sciences, Inc.), magnesium chloride (final concentration: 5 mM), ATP (final concentration: 30 uM), and each DMSO solution of the compound of the present invention (final concentration of DMSO: 5%) were added into a buffer solution for reaction (20 mM tris-HCl pH 7.5, 20 mM NaCl, 2.5 mM DTT, 0.02% Tween-20, 1% glycerol, 0.01 mM Pefabloc), and the mixture was then incubated at 25° C. for 30 minutes to perform kinase reaction. The kinase reaction was stopped by the addition thereto of EDTA.

>  <BAO Format ID>  (23) 
BAO_0000357

>  <BAO Label>  (23) 
single protein format

>  <Assay Organism>  (23) 
Homo sapiens

>  <Target ChEMBL ID>  (23) 
CHEMBL2599

>  <Target Name>  (23) 
Tyrosine-protein kinase SYK

>  <Target Organism>  (23) 
Homo sapiens

>  <Target Type>  (23) 
SINGLE PROTEIN

>  <Document ChEMBL ID>  (23) 
CHEMBL3886160

>  <Source Description>  (23) 
BindingDB Database

>  <Document Journal>  (23) 
nan

>  <Document Year>  (23) 
2015.0

>  <Active>  (23) 
1.0

>  <bits>  (23) 
<rdkit.DataStructs.cDataStructs.ExplicitBitVect object at 0x00000193F3402030>

>  <Group>  (23) 
G2

$$$$

     RDKit          2D

 28 31  0  0  0  0  0  0  0  0999 V2000
    3.0000  -10.3923    0.0000 C   0  0  0  0  0  0  0  0  0  0  0  0
    3.7500   -9.0933    0.0000 O   0  0  0  0  0  0  0  0  0  0  0  0
    3.0000   -7.7942    0.0000 C   0  0  0  0  0  0  0  0  0  0  0  0
    1.5000   -7.7942    0.0000 C   0  0  0  0  0  0  0  0  0  0  0  0
    0.7500   -6.4952    0.0000 C   0  0  0  0  0  0  0  0  0  0  0  0
    1.5000   -5.1962    0.0000 C   0  0  0  0  0  0  0  0  0  0  0  0
    0.7500   -3.8971    0.0000 C   0  0  0  0  0  0  0  0  0  0  0  0
    1.5000   -2.5981    0.0000 C   0  0  0  0  0  0  0  0  0  0  0  0
    0.7500   -1.2990    0.0000 C   0  0  0  0  0  0  0  0  0  0  0  0
    1.5000    0.0000    0.0000 N   0  0  0  0  0  0  0  0  0  0  0  0
    0.7500    1.2990    0.0000 C   0  0  0  0  0  0  0  0  0  0  0  0
   -0.7500    1.2990    0.0000 C   0  0  0  0  0  0  0  0  0  0  0  0
   -1.5000    0.0000    0.0000 C   0  0  0  0  0  0  0  0  0  0  0  0
   -0.7500   -1.2990    0.0000 C   0  0  0  0  0  0  0  0  0  0  0  0
   -1.5000   -2.5981    0.0000 C   0  0  0  0  0  0  0  0  0  0  0  0
   -3.0000   -2.5981    0.0000 O   0  0  0  0  0  0  0  0  0  0  0  0
   -3.7500   -3.8971    0.0000 C   0  0  0  0  0  0  0  0  0  0  0  0
   -5.2500   -3.8971    0.0000 C   0  0  0  0  0  0  0  0  0  0  0  0
   -6.1317   -5.1106    0.0000 N   0  0  0  0  0  0  0  0  0  0  0  0
   -7.5583   -4.6471    0.0000 N   0  0  0  0  0  0  0  0  0  0  0  0
   -7.5583   -3.1471    0.0000 C   0  0  0  0  0  0  0  0  0  0  0  0
   -8.7718   -2.2654    0.0000 O   0  0  0  0  0  0  0  0  0  0  0  0
   -6.1317   -2.6836    0.0000 O   0  0  0  0  0  0  0  0  0  0  0  0
   -0.7500   -3.8971    0.0000 N   0  0  0  0  0  0  0  0  0  0  0  0
    3.0000   -5.1962    0.0000 C   0  0  0  0  0  0  0  0  0  0  0  0
    3.7500   -6.4952    0.0000 C   0  0  0  0  0  0  0  0  0  0  0  0
    5.2500   -6.4952    0.0000 O   0  0  0  0  0  0  0  0  0  0  0  0
    6.0000   -5.1962    0.0000 C   0  0  0  0  0  0  0  0  0  0  0  0
  1  2  1  0
  2  3  1  0
  3  4  2  0
  4  5  1  0
  5  6  2  0
  6  7  1  0
  7  8  2  0
  8  9  1  0
  9 10  2  0
 10 11  1  0
 11 12  2  0
 12 13  1  0
 13 14  2  0
 14 15  1  0
 15 16  1  0
 16 17  1  0
 17 18  1  0
 18 19  2  0
 19 20  1  0
 20 21  1  0
 21 22  2  0
 21 23  1  0
 15 24  2  0
  6 25  1  0
 25 26  2  0
 26 27  1  0
 27 28  1  0
 26  3  1  0
 24  7  1  0
 14  9  1  0
 23 18  1  0
M  END
>  <Compound_ID>  (24) 
CHEMBL3696008

>  <Molecule Name>  (24) 
nan

>  <Molecular Weight>  (24) 
380.36

>  <AlogP>  (24) 
2.57

>  <Smiles>  (24) 
COc1ccc(-c2cc3ncccc3c(OCc3n[nH]c(=O)o3)n2)cc1OC

>  <Standard Type>  (24) 
IC50

>  <Standard Relation>  (24) 
'='

>  <Standard Units>  (24) 
nM

>  <Standard Value>  (24) 
4.1

>  <Assay ChEMBL ID>  (24) 
CHEMBL3705989

>  <Assay Description>  (24) 
Kinase Glo Luminescence Kinase Assay: Recombinant human Syk (amino acids 342-635) was expressed as a fusion protein with an N-terminal GST tag, affinity-purified and deep-frozen at a concentration of approx. 50 - 100 uM in test buffer (25 mM HEPES pH7.5; 25 mM MgCI2;5 mM MnCI2; 50 mM KCI; 0.2% BSA; 0.01 % CHAPS; 100 uM Na3V04; 0.5 mM DTT) and 10% glycerol at -80 C until use.The catalytic activity of the GST-Syk kinase fusion protein was determined using the Kinase Glo Luminescence Kinase test (Promega; V6712). In this homogeneous test the amount of ATP remaining after the kinase reaction is quantified by a luciferin-luciferase reaction using luminescence. The luminescence signal obtained correlates with the amount of ATP still present and thus correlates inversely with the activity of the protein kinase. Method:The test compounds were dissolved in 100 % DMSO at a concentration of 10 mM and diluted in DMSO to a concentration of 1 mM.

>  <BAO Format ID>  (24) 
BAO_0000357

>  <BAO Label>  (24) 
single protein format

>  <Assay Organism>  (24) 
Homo sapiens

>  <Target ChEMBL ID>  (24) 
CHEMBL2599

>  <Target Name>  (24) 
Tyrosine-protein kinase SYK

>  <Target Organism>  (24) 
Homo sapiens

>  <Target Type>  (24) 
SINGLE PROTEIN

>  <Document ChEMBL ID>  (24) 
CHEMBL3639308

>  <Source Description>  (24) 
BindingDB Database

>  <Document Journal>  (24) 
nan

>  <Document Year>  (24) 
2015.0

>  <Active>  (24) 
1.0

>  <bits>  (24) 
<rdkit.DataStructs.cDataStructs.ExplicitBitVect object at 0x00000193F3403A00>

>  <Group>  (24) 
G2

$$$$

     RDKit          2D

 33 36  0  0  0  0  0  0  0  0999 V2000
    5.0260   -1.2990    0.0000 C   0  0  0  0  0  0  0  0  0  0  0  0
    3.5260   -1.2990    0.0000 N   0  0  0  0  0  0  0  0  0  0  0  0
    2.7760   -2.5981    0.0000 C   0  0  0  0  0  0  0  0  0  0  0  0
    2.7760    0.0000    0.0000 C   0  0  0  0  0  0  0  0  0  0  0  0
    3.5260    1.2990    0.0000 O   0  0  0  0  0  0  0  0  0  0  0  0
    1.2760    0.0000    0.0000 C   0  0  0  0  0  0  0  0  0  0  0  0
    0.3943    1.2135    0.0000 C   0  0  0  0  0  0  0  0  0  0  0  0
   -1.0323    0.7500    0.0000 C   0  0  0  0  0  0  0  0  0  0  0  0
   -2.3313    1.5000    0.0000 C   0  0  0  0  0  0  0  0  0  0  0  0
   -3.6304    0.7500    0.0000 C   0  0  0  0  0  0  0  0  0  0  0  0
   -4.9294    1.5000    0.0000 N   0  0  0  0  0  0  0  0  0  0  0  0
   -4.9294    3.0000    0.0000 C   0  0  0  0  0  0  0  0  0  0  0  0
   -3.6304    3.7500    0.0000 N   0  0  0  0  0  0  0  0  0  0  0  0
   -3.6304    5.2500    0.0000 C   0  0  0  0  0  0  0  0  0  0  0  0
   -4.9294    6.0000    0.0000 C   0  0  0  0  0  0  0  0  0  0  0  0
   -6.2284    5.2500    0.0000 C   0  0  0  0  0  0  0  0  0  0  0  0
   -7.5275    6.0000    0.0000 C   0  0  0  0  0  0  0  0  0  0  0  0
   -7.5275    7.5000    0.0000 C   0  0  0  0  0  0  0  0  0  0  0  0
   -8.8265    8.2500    0.0000 C   0  0  0  0  0  0  0  0  0  0  0  0
   -8.8265    9.7500    0.0000 C   0  0  0  0  0  0  0  0  0  0  0  0
  -10.3265    9.7500    0.0000 C   0  0  0  0  0  0  0  0  0  0  0  0
   -7.3265    9.7500    0.0000 C   0  0  0  0  0  0  0  0  0  0  0  0
   -8.8265   11.2500    0.0000 C   0  0  0  0  0  0  0  0  0  0  0  0
   -8.8265   12.7500    0.0000 N   0  0  0  0  0  0  0  0  0  0  0  0
  -10.1256    7.5000    0.0000 C   0  0  0  0  0  0  0  0  0  0  0  0
  -10.1256    6.0000    0.0000 C   0  0  0  0  0  0  0  0  0  0  0  0
   -8.8265    5.2500    0.0000 N   0  0  0  0  0  0  0  0  0  0  0  0
   -6.2284    3.7500    0.0000 N   0  0  0  0  0  0  0  0  0  0  0  0
   -3.6304   -0.7500    0.0000 C   0  0  0  0  0  0  0  0  0  0  0  0
   -2.3313   -1.5000    0.0000 C   0  0  0  0  0  0  0  0  0  0  0  0
   -2.3313   -3.0000    0.0000 Cl  0  0  0  0  0  0  0  0  0  0  0  0
   -1.0323   -0.7500    0.0000 C   0  0  0  0  0  0  0  0  0  0  0  0
    0.3943   -1.2135    0.0000 N   0  0  0  0  0  0  0  0  0  0  0  0
  1  2  1  0
  2  3  1  0
  2  4  1  0
  4  5  2  0
  4  6  1  0
  6  7  2  0
  7  8  1  0
  8  9  2  0
  9 10  1  0
 10 11  1  0
 11 12  1  0
 12 13  2  0
 13 14  1  0
 14 15  2  0
 15 16  1  0
 16 17  1  0
 17 18  2  0
 18 19  1  0
 19 20  1  0
 20 21  1  0
 20 22  1  0
 20 23  1  0
 23 24  3  0
 19 25  2  0
 25 26  1  0
 26 27  2  0
 16 28  2  0
 10 29  2  0
 29 30  1  0
 30 31  1  0
 30 32  2  0
 32 33  1  0
 33  6  1  0
 32  8  1  0
 28 12  1  0
 27 17  1  0
M  END
>  <Compound_ID>  (25) 
CHEMBL3643811

>  <Molecule Name>  (25) 
nan

>  <Molecular Weight>  (25) 
459.94

>  <AlogP>  (25) 
4.92

>  <Smiles>  (25) 
CN(C)C(=O)c1cc2cc(Nc3nccc(-c4cc(C(C)(C)C#N)ccn4)n3)cc(Cl)c2[nH]1

>  <Standard Type>  (25) 
IC50

>  <Standard Relation>  (25) 
'='

>  <Standard Units>  (25) 
nM

>  <Standard Value>  (25) 
22.4

>  <Assay ChEMBL ID>  (25) 
CHEMBL3705803

>  <Assay Description>  (25) 
Kinase Glo Luminescence Kinase Assay: Recombinant human Syk (amino acids 342-635) was expressed as a fusion protein with an N-terminal GST tag, affinity-purified and deep-frozen at a concentration of approx. 50-100 uM in test buffer (25 mM HEPES pH7.5; 25 mM MgCl2; 5 mM MnCl2; 50 mM KCl; 0.2% BSA; 0.01% CHAPS; 100 uM Na3VO4; 0.5 mM DTT) and 10% glycerol at -80 C until use. The catalytic activity of the GST-Syk kinase fusion protein was determined using the Kinase Glo Luminescence Kinase test (Promega; V6712). In this homogeneous test the amount of ATP remaining after the kinase reaction is quantified by a luciferin-luciferase reaction using luminescence. The luminescence signal obtained correlates with the amount of ATP still present and thus correlates inversely with the activity of the protein kinase. The test compounds were dissolved in 100% DMSO at a concentration of 10 mM and diluted in DMSO to a concentration of 1 mM.

>  <BAO Format ID>  (25) 
BAO_0000357

>  <BAO Label>  (25) 
single protein format

>  <Assay Organism>  (25) 
Homo sapiens

>  <Target ChEMBL ID>  (25) 
CHEMBL2599

>  <Target Name>  (25) 
Tyrosine-protein kinase SYK

>  <Target Organism>  (25) 
Homo sapiens

>  <Target Type>  (25) 
SINGLE PROTEIN

>  <Document ChEMBL ID>  (25) 
CHEMBL3638486

>  <Source Description>  (25) 
BindingDB Database

>  <Document Journal>  (25) 
nan

>  <Document Year>  (25) 
2014.0

>  <Active>  (25) 
1.0

>  <bits>  (25) 
<rdkit.DataStructs.cDataStructs.ExplicitBitVect object at 0x00000193F3403AE0>

>  <Group>  (25) 
G2

$$$$

     RDKit          2D

 26 29  0  0  0  0  0  0  0  0999 V2000
    3.0000    0.0000    0.0000 C   0  0  0  0  0  0  0  0  0  0  0  0
    1.5000    0.0000    0.0000 N   0  0  0  0  0  0  0  0  0  0  0  0
    0.7500   -1.2990    0.0000 C   0  0  0  0  0  0  0  0  0  0  0  0
   -0.7500   -1.2990    0.0000 N   0  0  0  0  0  0  0  0  0  0  0  0
   -1.5000    0.0000    0.0000 C   0  0  0  0  0  0  0  0  0  0  0  0
   -3.0000    0.0000    0.0000 C   0  0  0  0  0  0  0  0  0  0  0  0
   -3.7500    1.2990    0.0000 C   0  0  0  0  0  0  0  0  0  0  0  0
   -5.2500    1.2990    0.0000 C   0  0  0  0  0  0  0  0  0  0  0  0
   -6.0000    2.5981    0.0000 C   0  0  0  0  0  0  0  0  0  0  0  0
   -7.5000    2.5981    0.0000 C   0  0  0  0  0  0  0  0  0  0  0  0
   -8.2500    1.2990    0.0000 C   0  0  0  0  0  0  0  0  0  0  0  0
   -7.5000    0.0000    0.0000 C   0  0  0  0  0  0  0  0  0  0  0  0
   -8.2500   -1.2990    0.0000 S   0  0  0  0  0  0  0  0  0  0  0  0
   -9.0000   -2.5981    0.0000 N   0  0  0  0  0  0  0  0  0  0  0  0
   -9.5490   -0.5490    0.0000 O   0  0  0  0  0  0  0  0  0  0  0  0
   -6.9510   -2.0490    0.0000 O   0  0  0  0  0  0  0  0  0  0  0  0
   -6.0000    0.0000    0.0000 C   0  0  0  0  0  0  0  0  0  0  0  0
   -3.0000    2.5981    0.0000 N   0  0  0  0  0  0  0  0  0  0  0  0
   -1.5000    2.5981    0.0000 C   0  0  0  0  0  0  0  0  0  0  0  0
   -0.7500    3.8971    0.0000 N   0  0  0  0  0  0  0  0  0  0  0  0
   -1.5000    5.1962    0.0000 C   0  0  0  0  0  0  0  0  0  0  0  0
   -2.7990    5.9462    0.0000 C   0  0  0  0  0  0  0  0  0  0  0  0
   -1.5000    6.6962    0.0000 C   0  0  0  0  0  0  0  0  0  0  0  0
   -0.7500    1.2990    0.0000 C   0  0  0  0  0  0  0  0  0  0  0  0
    0.7500    1.2990    0.0000 C   0  0  0  0  0  0  0  0  0  0  0  0
    1.5000    2.5981    0.0000 O   0  0  0  0  0  0  0  0  0  0  0  0
  1  2  1  0
  2  3  1  0
  3  4  2  0
  4  5  1  0
  5  6  2  0
  6  7  1  0
  7  8  1  0
  8  9  2  0
  9 10  1  0
 10 11  2  0
 11 12  1  0
 12 13  1  0
 13 14  1  0
 13 15  2  0
 13 16  2  0
 12 17  2  0
  7 18  2  0
 18 19  1  0
 19 20  1  0
 20 21  1  0
 21 22  1  0
 22 23  1  0
 19 24  2  0
 24 25  1  0
 25 26  2  0
 25  2  1  0
 24  5  1  0
 17  8  1  0
 23 21  1  0
M  END
>  <Compound_ID>  (26) 
CHEMBL3701444

>  <Molecule Name>  (26) 
nan

>  <Molecular Weight>  (26) 
371.42

>  <AlogP>  (26) 
1.22

>  <Smiles>  (26) 
Cn1cnc2cc(-c3cccc(S(N)(=O)=O)c3)nc(NC3CC3)c2c1=O

>  <Standard Type>  (26) 
IC50

>  <Standard Relation>  (26) 
'='

>  <Standard Units>  (26) 
nM

>  <Standard Value>  (26) 
38.0

>  <Assay ChEMBL ID>  (26) 
CHEMBL3705362

>  <Assay Description>  (26) 
Mobility-Shift kinase assay: Compounds of the examples provided herein were assessed for their ability to inhibit Syk kinase by utilizing Caliper Life Sciences' proprietary LabChip technology. The off-chip incubation mobility-shift kinase assay uses a microfluidic chip to measure the conversion of a fluorescent peptide substrate to a phosphorylated product. The reaction mixture, from a microtiter plate well, is introduced through a capillary sipper onto the chip, where the nonphosphorylated substrate and phosphorylated product are separated by electrophoresis and detected via laser induced fluorescence. The signature of the fluorescence signal over time reveals the extent of the reaction. The phosphorylated product migrates through the chip faster than the non-phosphorylated substrate, and signals from the two forms of the peptide appear as distinct peaks.

>  <BAO Format ID>  (26) 
BAO_0000357

>  <BAO Label>  (26) 
single protein format

>  <Assay Organism>  (26) 
Homo sapiens

>  <Target ChEMBL ID>  (26) 
CHEMBL2599

>  <Target Name>  (26) 
Tyrosine-protein kinase SYK

>  <Target Organism>  (26) 
Homo sapiens

>  <Target Type>  (26) 
SINGLE PROTEIN

>  <Document ChEMBL ID>  (26) 
CHEMBL3639055

>  <Source Description>  (26) 
BindingDB Database

>  <Document Journal>  (26) 
nan

>  <Document Year>  (26) 
2014.0

>  <Active>  (26) 
1.0

>  <bits>  (26) 
<rdkit.DataStructs.cDataStructs.ExplicitBitVect object at 0x00000193F3400C80>

>  <Group>  (26) 
G2

$$$$

     RDKit          2D

 30 33  0  0  0  0  0  0  0  0999 V2000
   -3.0367   -3.1226    0.0000 C   0  0  0  0  0  0  0  0  0  0  0  0
   -1.6852   -2.4718    0.0000 C   0  0  0  0  0  0  0  0  0  0  0  0
   -2.6205   -1.2990    0.0000 C   0  0  0  0  0  0  0  0  0  0  0  0
   -1.3515   -3.9342    0.0000 O   0  0  0  0  0  0  0  0  0  0  0  0
   -0.0000   -4.5850    0.0000 C   0  0  0  0  0  0  0  0  0  0  0  0
    1.3515   -3.9342    0.0000 C   0  0  0  0  0  0  0  0  0  0  0  0
    2.5242   -4.8694    0.0000 O   0  0  0  0  0  0  0  0  0  0  0  0
    1.6852   -2.4718    0.0000 N   0  0  0  0  0  0  0  0  0  0  0  0
    0.7500   -1.2990    0.0000 C   0  0  0  0  0  0  0  0  0  0  0  0
    1.5000    0.0000    0.0000 C   0  0  0  0  0  0  0  0  0  0  0  0
    0.7500    1.2990    0.0000 C   0  0  0  0  0  0  0  0  0  0  0  0
    1.5000    2.5981    0.0000 N   0  0  0  0  0  0  0  0  0  0  0  0
    3.0000    2.5981    0.0000 C   0  0  0  0  0  0  0  0  0  0  0  0
    3.7500    1.2990    0.0000 N   0  0  0  0  0  0  0  0  0  0  0  0
    5.2500    1.2990    0.0000 C   0  0  0  0  0  0  0  0  0  0  0  0
    6.0000   -0.0000    0.0000 N   0  0  0  0  0  0  0  0  0  0  0  0
    5.2500   -1.2990    0.0000 C   0  0  0  0  0  0  0  0  0  0  0  0
    6.0000   -2.5981    0.0000 C   0  0  0  0  0  0  0  0  0  0  0  0
    6.7500   -3.8971    0.0000 F   0  0  0  0  0  0  0  0  0  0  0  0
    4.7010   -3.3481    0.0000 F   0  0  0  0  0  0  0  0  0  0  0  0
    7.2990   -1.8481    0.0000 F   0  0  0  0  0  0  0  0  0  0  0  0
    6.0000    2.5981    0.0000 C   0  0  0  0  0  0  0  0  0  0  0  0
    7.4672    2.9099    0.0000 O   0  0  0  0  0  0  0  0  0  0  0  0
    7.6240    4.4017    0.0000 C   0  0  0  0  0  0  0  0  0  0  0  0
    6.2537    5.0118    0.0000 C   0  0  0  0  0  0  0  0  0  0  0  0
    5.2500    3.8971    0.0000 C   0  0  0  0  0  0  0  0  0  0  0  0
    3.7500    3.8971    0.0000 N   0  0  0  0  0  0  0  0  0  0  0  0
   -0.7500    1.2990    0.0000 C   0  0  0  0  0  0  0  0  0  0  0  0
   -1.5000    0.0000    0.0000 C   0  0  0  0  0  0  0  0  0  0  0  0
   -0.7500   -1.2990    0.0000 C   0  0  0  0  0  0  0  0  0  0  0  0
  1  2  1  0
  2  3  1  0
  2  4  1  0
  4  5  1  0
  5  6  1  0
  6  7  2  0
  6  8  1  0
  8  9  1  0
  9 10  2  0
 10 11  1  0
 11 12  1  0
 12 13  1  0
 13 14  2  0
 14 15  1  0
 15 16  1  0
 16 17  1  0
 17 18  1  0
 18 19  1  0
 18 20  1  0
 18 21  1  0
 15 22  2  0
 22 23  1  0
 23 24  1  0
 24 25  2  0
 25 26  1  0
 26 27  2  0
 11 28  2  0
 28 29  1  0
 29 30  2  0
 30  2  1  0
 30  9  1  0
 27 13  1  0
 26 22  1  0
M  END
>  <Compound_ID>  (27) 
CHEMBL4069365

>  <Molecule Name>  (27) 
nan

>  <Molecular Weight>  (27) 
421.38

>  <AlogP>  (27) 
4.14

>  <Smiles>  (27) 
CC1(C)OCC(=O)Nc2cc(Nc3nc(NCC(F)(F)F)c4occc4n3)ccc21

>  <Standard Type>  (27) 
IC50

>  <Standard Relation>  (27) 
'='

>  <Standard Units>  (27) 
nM

>  <Standard Value>  (27) 
7.0

>  <Assay ChEMBL ID>  (27) 
CHEMBL4007647

>  <Assay Description>  (27) 
Inhibition of C-terminal His-tagged Syk catalytic domain (356 to 635 residues) (unknown origin) using biotin-TYR1 as substrate after 60 mins by TR-FRET assay

>  <BAO Format ID>  (27) 
BAO_0000357

>  <BAO Label>  (27) 
single protein format

>  <Assay Organism>  (27) 
Homo sapiens

>  <Target ChEMBL ID>  (27) 
CHEMBL2599

>  <Target Name>  (27) 
Tyrosine-protein kinase SYK

>  <Target Organism>  (27) 
Homo sapiens

>  <Target Type>  (27) 
SINGLE PROTEIN

>  <Document ChEMBL ID>  (27) 
CHEMBL4007384

>  <Source Description>  (27) 
Scientific Literature

>  <Document Journal>  (27) 
Bioorg Med Chem Lett

>  <Document Year>  (27) 
2016.0

>  <Active>  (27) 
1.0

>  <bits>  (27) 
<rdkit.DataStructs.cDataStructs.ExplicitBitVect object at 0x00000193F3401B60>

>  <Group>  (27) 
G2

$$$$

     RDKit          2D

 28 31  0  0  0  0  0  0  0  0999 V2000
   -2.9520   -4.6564    0.0000 C   0  0  0  0  0  0  0  0  0  0  0  0
   -2.6401   -3.1891    0.0000 C   0  0  0  0  0  0  0  0  0  0  0  0
   -1.2135   -2.7256    0.0000 N   0  0  0  0  0  0  0  0  0  0  0  0
   -0.0000   -3.6073    0.0000 N   0  0  0  0  0  0  0  0  0  0  0  0
    1.2135   -2.7256    0.0000 C   0  0  0  0  0  0  0  0  0  0  0  0
    0.7500   -1.2990    0.0000 C   0  0  0  0  0  0  0  0  0  0  0  0
    1.5000    0.0000    0.0000 C   0  0  0  0  0  0  0  0  0  0  0  0
    0.7500    1.2990    0.0000 C   0  0  0  0  0  0  0  0  0  0  0  0
    1.5000    2.5981    0.0000 N   0  0  0  0  0  0  0  0  0  0  0  0
    3.0000    2.5981    0.0000 C   0  0  0  0  0  0  0  0  0  0  0  0
    3.7500    1.2990    0.0000 N   0  0  0  0  0  0  0  0  0  0  0  0
    5.2500    1.2990    0.0000 C   0  0  0  0  0  0  0  0  0  0  0  0
    6.0000   -0.0000    0.0000 N   0  0  0  0  0  0  0  0  0  0  0  0
    5.2500   -1.2990    0.0000 C   0  0  0  0  0  0  0  0  0  0  0  0
    3.7500   -1.2990    0.0000 C   0  0  0  0  0  0  0  0  0  0  0  0
    3.0000   -2.5981    0.0000 C   0  0  0  0  0  0  0  0  0  0  0  0
    3.7500   -3.8971    0.0000 C   0  0  0  0  0  0  0  0  0  0  0  0
    5.2500   -3.8971    0.0000 N   0  0  0  0  0  0  0  0  0  0  0  0
    6.0000   -2.5981    0.0000 C   0  0  0  0  0  0  0  0  0  0  0  0
    6.0000    2.5981    0.0000 N   0  0  0  0  0  0  0  0  0  0  0  0
    5.2500    3.8971    0.0000 N   0  0  0  0  0  0  0  0  0  0  0  0
    3.7500    3.8971    0.0000 C   0  0  0  0  0  0  0  0  0  0  0  0
    3.0000    5.1962    0.0000 C   0  0  0  0  0  0  0  0  0  0  0  0
    3.7500    6.4952    0.0000 N   0  0  0  0  0  0  0  0  0  0  0  0
    1.5000    5.1962    0.0000 O   0  0  0  0  0  0  0  0  0  0  0  0
   -0.7500    1.2990    0.0000 C   0  0  0  0  0  0  0  0  0  0  0  0
   -1.5000    0.0000    0.0000 C   0  0  0  0  0  0  0  0  0  0  0  0
   -0.7500   -1.2990    0.0000 C   0  0  0  0  0  0  0  0  0  0  0  0
  1  2  1  0
  2  3  1  0
  3  4  1  0
  4  5  2  0
  5  6  1  0
  6  7  2  0
  7  8  1  0
  8  9  1  0
  9 10  1  0
 10 11  2  0
 11 12  1  0
 12 13  1  0
 14 13  1  6
 14 15  1  0
 15 16  1  0
 16 17  1  0
 17 18  1  0
 18 19  1  0
 12 20  2  0
 20 21  1  0
 21 22  2  0
 22 23  1  0
 23 24  1  0
 23 25  2  0
  8 26  2  0
 26 27  1  0
 27 28  2  0
 28  3  1  0
 28  6  1  0
 22 10  1  0
 19 14  1  0
M  END
>  <Compound_ID>  (28) 
CHEMBL3907311

>  <Molecule Name>  (28) 
nan

>  <Molecular Weight>  (28) 
381.44

>  <AlogP>  (28) 
1.25

>  <Smiles>  (28) 
CCn1ncc2cc(Nc3nc(N[C@H]4CCCNC4)nnc3C(N)=O)ccc21

>  <Standard Type>  (28) 
IC50

>  <Standard Relation>  (28) 
'='

>  <Standard Units>  (28) 
nM

>  <Standard Value>  (28) 
0.92

>  <Assay ChEMBL ID>  (28) 
CHEMBL3887085

>  <Assay Description>  (28) 
Aurora B Kinase Inhibition Assay: The in vitro inhibitory activity of the compound against Aurora B kinase activity was assayed with reference to a method described in patent publication (JP-A-2008-81492). The purified recombinant human Aurora B protein used in the test was purchased from Carna Biosciences, Inc. For the inhibitory activity assay on the compound, the compound of the present invention was first serially diluted with dimethyl sulfoxide (DMSO). Next, the purified human Aurora B protein FL-Peptide 21 (Caliper Life Sciences, Inc., final concentration: 100 nM), magnesium chloride (final concentration: 1 mM), ATP (final concentration: 40 uM), and each DMSO solution of the compound of the present invention (final concentration of DMSO: 5%) were added into a buffer solution for reaction (20 mM HEPES pH 7.4, 2 mM DTT, 0.01% Tween-20), and the mixture was then incubated at 25° C. for 60 minutes to perform kinase reaction. The kinase reaction was stopped by the addition thereto of IMAP.TM.

>  <BAO Format ID>  (28) 
BAO_0000357

>  <BAO Label>  (28) 
single protein format

>  <Assay Organism>  (28) 
Homo sapiens

>  <Target ChEMBL ID>  (28) 
CHEMBL2599

>  <Target Name>  (28) 
Tyrosine-protein kinase SYK

>  <Target Organism>  (28) 
Homo sapiens

>  <Target Type>  (28) 
SINGLE PROTEIN

>  <Document ChEMBL ID>  (28) 
CHEMBL3886160

>  <Source Description>  (28) 
BindingDB Database

>  <Document Journal>  (28) 
nan

>  <Document Year>  (28) 
2015.0

>  <Active>  (28) 
1.0

>  <bits>  (28) 
<rdkit.DataStructs.cDataStructs.ExplicitBitVect object at 0x00000193F3403DF0>

>  <Group>  (28) 
G2

$$$$

     RDKit          2D

 26 29  0  0  0  0  0  0  0  0999 V2000
   -6.1149    1.8303    0.0000 C   0  0  0  0  0  0  0  0  0  0  0  0
   -4.6883    2.2939    0.0000 C   0  0  0  0  0  0  0  0  0  0  0  0
   -3.5736    1.2902    0.0000 O   0  0  0  0  0  0  0  0  0  0  0  0
   -2.1470    1.7537    0.0000 C   0  0  0  0  0  0  0  0  0  0  0  0
   -1.8351    3.2209    0.0000 C   0  0  0  0  0  0  0  0  0  0  0  0
   -0.4086    3.6844    0.0000 C   0  0  0  0  0  0  0  0  0  0  0  0
   -0.0967    5.1517    0.0000 C   0  0  0  0  0  0  0  0  0  0  0  0
   -1.1004    6.2664    0.0000 C   0  0  0  0  0  0  0  0  0  0  0  0
   -0.3504    7.5654    0.0000 N   0  0  0  0  0  0  0  0  0  0  0  0
    1.1168    7.2536    0.0000 N   0  0  0  0  0  0  0  0  0  0  0  0
    2.2316    8.2572    0.0000 C   0  0  0  0  0  0  0  0  0  0  0  0
    3.6581    7.7937    0.0000 F   0  0  0  0  0  0  0  0  0  0  0  0
    1.9197    9.7245    0.0000 F   0  0  0  0  0  0  0  0  0  0  0  0
    1.2736    5.7618    0.0000 C   0  0  0  0  0  0  0  0  0  0  0  0
    0.7062    2.6807    0.0000 C   0  0  0  0  0  0  0  0  0  0  0  0
    0.3943    1.2135    0.0000 C   0  0  0  0  0  0  0  0  0  0  0  0
    1.2760    0.0000    0.0000 N   0  0  0  0  0  0  0  0  0  0  0  0
    0.3943   -1.2135    0.0000 S   0  0  0  0  0  0  0  0  0  0  0  0
   -1.0323   -0.7500    0.0000 C   0  0  0  0  0  0  0  0  0  0  0  0
   -1.0323    0.7500    0.0000 C   0  0  0  0  0  0  0  0  0  0  0  0
   -4.3764    3.7611    0.0000 C   0  0  0  0  0  0  0  0  0  0  0  0
   -5.3801    4.8758    0.0000 C   0  0  0  0  0  0  0  0  0  0  0  0
   -4.6301    6.1748    0.0000 N   0  0  0  0  0  0  0  0  0  0  0  0
   -3.1629    5.8630    0.0000 C   0  0  0  0  0  0  0  0  0  0  0  0
   -2.0482    6.8667    0.0000 O   0  0  0  0  0  0  0  0  0  0  0  0
   -3.0061    4.3712    0.0000 C   0  0  0  0  0  0  0  0  0  0  0  0
  2  1  1  6
  2  3  1  0
  3  4  1  0
  4  5  2  0
  5  6  1  0
  6  7  1  0
  7  8  1  0
  8  9  2  0
  9 10  1  0
 10 11  1  0
 11 12  1  0
 11 13  1  0
 10 14  1  0
  6 15  2  0
 15 16  1  0
 16 17  2  0
 17 18  1  0
 18 19  1  0
 19 20  2  0
  2 21  1  0
 21 22  1  1
 22 23  1  0
 23 24  1  0
 24 25  2  0
 24 26  1  0
 20  4  1  0
 26 21  1  0
 14  7  2  0
 20 16  1  0
M  END
>  <Compound_ID>  (29) 
CHEMBL3622210

>  <Molecule Name>  (29) 
nan

>  <Molecular Weight>  (29) 
378.4

>  <AlogP>  (29) 
3.46

>  <Smiles>  (29) 
C[C@@H](Oc1cc(-c2cnn(C(F)F)c2)cc2nscc12)[C@H]1CNC(=O)C1

>  <Standard Type>  (29) 
IC50

>  <Standard Relation>  (29) 
'='

>  <Standard Units>  (29) 
nM

>  <Standard Value>  (29) 
57.0

>  <Assay ChEMBL ID>  (29) 
CHEMBL3627444

>  <Assay Description>  (29) 
Inhibition of Syk (unknown origin) using 5-Fluo-Ahx-GAPDYENLQELNKK-Amide as substrate after 60 mins by microfluidic mobility shift assay

>  <BAO Format ID>  (29) 
BAO_0000357

>  <BAO Label>  (29) 
single protein format

>  <Assay Organism>  (29) 
Homo sapiens

>  <Target ChEMBL ID>  (29) 
CHEMBL2599

>  <Target Name>  (29) 
Tyrosine-protein kinase SYK

>  <Target Organism>  (29) 
Homo sapiens

>  <Target Type>  (29) 
SINGLE PROTEIN

>  <Document ChEMBL ID>  (29) 
CHEMBL3621151

>  <Source Description>  (29) 
Scientific Literature

>  <Document Journal>  (29) 
Bioorg Med Chem Lett

>  <Document Year>  (29) 
2015.0

>  <Active>  (29) 
1.0

>  <bits>  (29) 
<rdkit.DataStructs.cDataStructs.ExplicitBitVect object at 0x00000193F3400C10>

>  <Group>  (29) 
G2

$$$$

     RDKit          2D

 55 62  0  0  0  0  0  0  0  0999 V2000
   -7.5613   -9.9436    0.0000 C   0  0  0  0  0  0  0  0  0  0  0  0
   -6.3478   -9.0619    0.0000 C   0  0  0  0  0  0  0  0  0  0  0  0
   -4.9775   -9.6721    0.0000 C   0  0  0  0  0  0  0  0  0  0  0  0
   -6.5046   -7.5702    0.0000 C   0  0  0  0  0  0  0  0  0  0  0  0
   -5.3899   -6.5665    0.0000 C   0  0  0  0  0  0  0  0  0  0  0  0
   -6.0000   -5.1962    0.0000 C   0  0  0  0  0  0  0  0  0  0  0  0
   -5.2500   -3.8971    0.0000 N   0  0  0  0  0  0  0  0  0  0  0  0
   -3.7500   -3.8971    0.0000 C   0  0  0  0  0  0  0  0  0  0  0  0
   -3.0000   -5.1962    0.0000 O   0  0  0  0  0  0  0  0  0  0  0  0
   -3.0000   -2.5981    0.0000 N   0  0  0  0  0  0  0  0  0  0  0  0
   -1.5000   -2.5981    0.0000 C   0  0  0  0  0  0  0  0  0  0  0  0
   -0.7500   -3.8971    0.0000 C   0  0  0  0  0  0  0  0  0  0  0  0
    0.7500   -3.8971    0.0000 C   0  0  0  0  0  0  0  0  0  0  0  0
    1.5000   -2.5981    0.0000 C   0  0  0  0  0  0  0  0  0  0  0  0
    3.0000   -2.5981    0.0000 O   0  0  0  0  0  0  0  0  0  0  0  0
    3.7500   -3.8971    0.0000 C   0  0  0  0  0  0  0  0  0  0  0  0
    3.0000   -5.1962    0.0000 C   0  0  0  0  0  0  0  0  0  0  0  0
    3.7500   -6.4952    0.0000 C   0  0  0  0  0  0  0  0  0  0  0  0
    5.2500   -6.4952    0.0000 N   0  0  0  0  0  0  0  0  0  0  0  0
    6.0000   -5.1962    0.0000 C   0  0  0  0  0  0  0  0  0  0  0  0
    7.5000   -5.1962    0.0000 N   0  0  0  0  0  0  0  0  0  0  0  0
    8.2500   -6.4952    0.0000 C   0  0  0  0  0  0  0  0  0  0  0  0
    7.5000   -7.7942    0.0000 C   0  0  0  0  0  0  0  0  0  0  0  0
    8.2500   -9.0933    0.0000 C   0  0  0  0  0  0  0  0  0  0  0  0
    9.7500   -9.0933    0.0000 C   0  0  0  0  0  0  0  0  0  0  0  0
   10.5000   -7.7942    0.0000 C   0  0  0  0  0  0  0  0  0  0  0  0
    9.7500   -6.4952    0.0000 C   0  0  0  0  0  0  0  0  0  0  0  0
   11.9672   -8.1061    0.0000 N   0  0  0  0  0  0  0  0  0  0  0  0
   12.1240   -9.5979    0.0000 C   0  0  0  0  0  0  0  0  0  0  0  0
   13.4231  -10.3479    0.0000 O   0  0  0  0  0  0  0  0  0  0  0  0
   10.7537  -10.2080    0.0000 C   0  0  0  0  0  0  0  0  0  0  0  0
    5.2500   -3.8971    0.0000 N   0  0  0  0  0  0  0  0  0  0  0  0
    0.7500   -1.2990    0.0000 C   0  0  0  0  0  0  0  0  0  0  0  0
    1.5000    0.0000    0.0000 C   0  0  0  0  0  0  0  0  0  0  0  0
    0.7500    1.2990    0.0000 C   0  0  0  0  0  0  0  0  0  0  0  0
   -0.7500    1.2990    0.0000 C   0  0  0  0  0  0  0  0  0  0  0  0
   -1.5000    0.0000    0.0000 C   0  0  0  0  0  0  0  0  0  0  0  0
   -0.7500   -1.2990    0.0000 C   0  0  0  0  0  0  0  0  0  0  0  0
   -7.4918   -5.3529    0.0000 N   0  0  0  0  0  0  0  0  0  0  0  0
   -8.4955   -4.2382    0.0000 C   0  0  0  0  0  0  0  0  0  0  0  0
   -8.0320   -2.8116    0.0000 C   0  0  0  0  0  0  0  0  0  0  0  0
   -9.0356   -1.6969    0.0000 C   0  0  0  0  0  0  0  0  0  0  0  0
  -10.5029   -2.0088    0.0000 C   0  0  0  0  0  0  0  0  0  0  0  0
  -11.5066   -0.8941    0.0000 O   0  0  0  0  0  0  0  0  0  0  0  0
  -11.0430    0.5325    0.0000 C   0  0  0  0  0  0  0  0  0  0  0  0
  -12.0467    1.6472    0.0000 C   0  0  0  0  0  0  0  0  0  0  0  0
  -11.5832    3.0738    0.0000 N   0  0  0  0  0  0  0  0  0  0  0  0
  -10.1160    3.3857    0.0000 C   0  0  0  0  0  0  0  0  0  0  0  0
   -9.6525    4.8123    0.0000 C   0  0  0  0  0  0  0  0  0  0  0  0
  -10.6562    5.9270    0.0000 O   0  0  0  0  0  0  0  0  0  0  0  0
  -12.1234    5.6151    0.0000 C   0  0  0  0  0  0  0  0  0  0  0  0
  -12.5869    4.1885    0.0000 C   0  0  0  0  0  0  0  0  0  0  0  0
  -10.9664   -3.4354    0.0000 C   0  0  0  0  0  0  0  0  0  0  0  0
   -9.9627   -4.5501    0.0000 C   0  0  0  0  0  0  0  0  0  0  0  0
   -7.8037   -6.8202    0.0000 N   0  0  0  0  0  0  0  0  0  0  0  0
  1  2  1  0
  2  3  1  0
  2  4  1  0
  4  5  1  0
  5  6  2  0
  6  7  1  0
  7  8  1  0
  8  9  2  0
  8 10  1  0
 10 11  1  0
 11 12  2  0
 12 13  1  0
 13 14  2  0
 14 15  1  0
 15 16  1  0
 16 17  2  0
 17 18  1  0
 18 19  2  0
 19 20  1  0
 20 21  1  0
 21 22  1  0
 22 23  2  0
 23 24  1  0
 24 25  2  0
 25 26  1  0
 26 27  2  0
 26 28  1  0
 28 29  1  0
 29 30  2  0
 29 31  1  0
 20 32  2  0
 14 33  1  0
 33 34  2  0
 34 35  1  0
 35 36  2  0
 36 37  1  0
 37 38  2  0
  6 39  1  0
 39 40  1  0
 40 41  2  0
 41 42  1  0
 42 43  2  0
 43 44  1  0
 44 45  1  0
 45 46  1  0
 46 47  1  0
 47 48  1  0
 48 49  1  0
 49 50  1  0
 50 51  1  0
 51 52  1  0
 43 53  1  0
 53 54  2  0
 39 55  1  0
 55  4  2  0
 38 11  1  0
 54 40  1  0
 32 16  1  0
 38 33  1  0
 52 47  1  0
 27 22  1  0
 31 25  1  0
M  END
>  <Compound_ID>  (30) 
CHEMBL3898648

>  <Molecule Name>  (30) 
nan

>  <Molecular Weight>  (30) 
739.84

>  <AlogP>  (30) 
7.32

>  <Smiles>  (30) 
CC(C)c1cc(NC(=O)Nc2ccc(Oc3ccnc(Nc4ccc5c(c4)NC(=O)C5)n3)c3ccccc23)n(-c2ccc(OCCN3CCOCC3)cc2)n1

>  <Standard Type>  (30) 
IC50

>  <Standard Relation>  (30) 
'='

>  <Standard Units>  (30) 
nM

>  <Standard Value>  (30) 
7.0

>  <Assay ChEMBL ID>  (30) 
CHEMBL3887920

>  <Assay Description>  (30) 
c-Src and Syk Enzyme Inhibition Assay: The inhibitory activities of compounds of the invention against c-Src and Syk enzymes (Invitrogen), are evaluated in a similar fashion to that described hereinabove. The relevant enzyme (3000 ng/mL or 2000 ng/mL respectively, 2.5 uL) is incubated with the test compound (either 4 ug/mL, 0.4 ug/mL, 0.04 ug/mL, or 0.004 ug/mL, 2.5 uL each) for 2 hr at RT. The FRET peptides (8 uM, 2.5 uL), and appropriate ATP solutions (2.5 uL, 800 uM for c-Src, and 60 uM ATP for Syk) are then added to the enzymes/compound mixtures and incubated for 1 hr. Development reagent (protease, 5 uL) is added for 1 hr prior to detection in a fluorescence microplate reader (Varioskan Flash, ThermoFisher Scientific).

>  <BAO Format ID>  (30) 
BAO_0000357

>  <BAO Label>  (30) 
single protein format

>  <Assay Organism>  (30) 
Homo sapiens

>  <Target ChEMBL ID>  (30) 
CHEMBL2599

>  <Target Name>  (30) 
Tyrosine-protein kinase SYK

>  <Target Organism>  (30) 
Homo sapiens

>  <Target Type>  (30) 
SINGLE PROTEIN

>  <Document ChEMBL ID>  (30) 
CHEMBL3886505

>  <Source Description>  (30) 
BindingDB Database

>  <Document Journal>  (30) 
nan

>  <Document Year>  (30) 
2016.0

>  <Active>  (30) 
1.0

>  <bits>  (30) 
<rdkit.DataStructs.cDataStructs.ExplicitBitVect object at 0x00000193F3401230>

>  <Group>  (30) 
G2

$$$$

     RDKit          2D

 29 32  0  0  0  0  0  0  0  0999 V2000
    3.7500   -1.2990    0.0000 N   0  0  0  0  0  0  0  0  0  0  0  0
    3.0000    0.0000    0.0000 C   0  0  0  0  0  0  0  0  0  0  0  0
    3.7500    1.2990    0.0000 O   0  0  0  0  0  0  0  0  0  0  0  0
    1.5000    0.0000    0.0000 C   0  0  0  0  0  0  0  0  0  0  0  0
    0.7500   -1.2990    0.0000 C   0  0  0  0  0  0  0  0  0  0  0  0
   -0.7500   -1.2990    0.0000 N   0  0  0  0  0  0  0  0  0  0  0  0
   -1.5000    0.0000    0.0000 C   0  0  0  0  0  0  0  0  0  0  0  0
   -3.0000    0.0000    0.0000 N   0  0  0  0  0  0  0  0  0  0  0  0
   -3.7500    1.2990    0.0000 C   0  0  0  0  0  0  0  0  0  0  0  0
   -3.0000    2.5981    0.0000 C   0  0  0  0  0  0  0  0  0  0  0  0
   -3.7500    3.8971    0.0000 C   0  0  0  0  0  0  0  0  0  0  0  0
   -5.2500    3.8971    0.0000 C   0  0  0  0  0  0  0  0  0  0  0  0
   -6.0000    5.1962    0.0000 N   0  0  0  0  0  0  0  0  0  0  0  0
   -5.2500    6.4952    0.0000 C   0  0  0  0  0  0  0  0  0  0  0  0
   -6.0000    7.7942    0.0000 C   0  0  0  0  0  0  0  0  0  0  0  0
   -7.5000    7.7942    0.0000 C   0  0  0  0  0  0  0  0  0  0  0  0
   -8.2500    6.4952    0.0000 C   0  0  0  0  0  0  0  0  0  0  0  0
   -9.7500    6.4952    0.0000 C   0  0  0  0  0  0  0  0  0  0  0  0
  -10.5000    7.7942    0.0000 N   0  0  0  0  0  0  0  0  0  0  0  0
  -10.5000    5.1962    0.0000 O   0  0  0  0  0  0  0  0  0  0  0  0
   -7.5000    5.1962    0.0000 C   0  0  0  0  0  0  0  0  0  0  0  0
   -6.0000    2.5981    0.0000 C   0  0  0  0  0  0  0  0  0  0  0  0
   -5.2500    1.2990    0.0000 C   0  0  0  0  0  0  0  0  0  0  0  0
   -0.7500    1.2990    0.0000 N   0  0  0  0  0  0  0  0  0  0  0  0
    0.7500    1.2990    0.0000 C   0  0  0  0  0  0  0  0  0  0  0  0
    1.5000    2.5981    0.0000 N   0  0  0  0  0  0  0  0  0  0  0  0
    0.7500    3.8971    0.0000 C   0  0  0  0  0  0  0  0  0  0  0  0
   -0.5490    4.6471    0.0000 C   0  0  0  0  0  0  0  0  0  0  0  0
    0.7500    5.3971    0.0000 C   0  0  0  0  0  0  0  0  0  0  0  0
  1  2  1  0
  2  3  2  0
  2  4  1  0
  4  5  2  0
  5  6  1  0
  6  7  2  0
  7  8  1  0
  8  9  1  0
  9 10  2  0
 10 11  1  0
 11 12  2  0
 12 13  1  0
 13 14  1  0
 14 15  1  0
 15 16  1  0
 16 17  1  0
 17 18  1  6
 18 19  1  0
 18 20  2  0
 17 21  1  0
 12 22  1  0
 22 23  2  0
  7 24  1  0
 24 25  2  0
 25 26  1  0
 26 27  1  0
 27 28  1  0
 28 29  1  0
 25  4  1  0
 29 27  1  0
 23  9  1  0
 21 13  1  0
M  END
>  <Compound_ID>  (31) 
CHEMBL3645122

>  <Molecule Name>  (31) 
nan

>  <Molecular Weight>  (31) 
395.47

>  <AlogP>  (31) 
1.60

>  <Smiles>  (31) 
NC(=O)c1cnc(Nc2ccc(N3CCC[C@@H](C(N)=O)C3)cc2)nc1NC1CC1

>  <Standard Type>  (31) 
Kd

>  <Standard Relation>  (31) 
'='

>  <Standard Units>  (31) 
nM

>  <Standard Value>  (31) 
9.4

>  <Assay ChEMBL ID>  (31) 
CHEMBL3707841

>  <Assay Description>  (31) 
Ambit KinomeScan Assay: This assay is an ATP-site dependent competition binding assay in which human kinases of interest are fused to a proprietary tag (T7 bacteriophage). The amount of kinase bound to an immobilized, active-site directed ligand is measured in the presence and absence of the test compound. Ambit's JAK assays use kinase domains and not full-length proteins. The domain used for JAK1 binding is the pseudo kinase domain while that for JAK3 binding is the catalytic domain (Mazen W Karaman, Sanna Herrgard, Daniel K Treiber, et. al. A Quantitative analysis of kinase inhibitor selectivity. Nature Biotechnology, 2008, Volume 26, No. 1, Page 127-132).

>  <BAO Format ID>  (31) 
BAO_0000357

>  <BAO Label>  (31) 
single protein format

>  <Assay Organism>  (31) 
Homo sapiens

>  <Target ChEMBL ID>  (31) 
CHEMBL2599

>  <Target Name>  (31) 
Tyrosine-protein kinase SYK

>  <Target Organism>  (31) 
Homo sapiens

>  <Target Type>  (31) 
SINGLE PROTEIN

>  <Document ChEMBL ID>  (31) 
CHEMBL3638708

>  <Source Description>  (31) 
BindingDB Database

>  <Document Journal>  (31) 
nan

>  <Document Year>  (31) 
2015.0

>  <Active>  (31) 
1.0

>  <bits>  (31) 
<rdkit.DataStructs.cDataStructs.ExplicitBitVect object at 0x00000193F34025E0>

>  <Group>  (31) 
G2

$$$$

     RDKit          2D

 33 37  0  0  0  0  0  0  0  0999 V2000
   -8.2500   -9.0933    0.0000 C   0  0  0  0  0  0  0  0  0  0  0  0
   -7.5000   -7.7942    0.0000 O   0  0  0  0  0  0  0  0  0  0  0  0
   -6.0000   -7.7942    0.0000 C   0  0  0  0  0  0  0  0  0  0  0  0
   -5.2500   -6.4952    0.0000 C   0  0  0  0  0  0  0  0  0  0  0  0
   -6.0000   -5.1962    0.0000 C   0  0  0  0  0  0  0  0  0  0  0  0
   -5.2500   -3.8971    0.0000 C   0  0  0  0  0  0  0  0  0  0  0  0
   -3.7500   -3.8971    0.0000 N   0  0  0  0  0  0  0  0  0  0  0  0
   -3.0000   -5.1962    0.0000 C   0  0  0  0  0  0  0  0  0  0  0  0
   -1.5000   -5.1962    0.0000 C   0  0  0  0  0  0  0  0  0  0  0  0
   -0.7500   -6.4952    0.0000 C   0  0  0  0  0  0  0  0  0  0  0  0
    0.7500   -6.4952    0.0000 C   0  0  0  0  0  0  0  0  0  0  0  0
    1.5000   -5.1962    0.0000 N   0  0  0  0  0  0  0  0  0  0  0  0
    0.7500   -3.8971    0.0000 C   0  0  0  0  0  0  0  0  0  0  0  0
    1.5000   -2.5981    0.0000 N   0  0  0  0  0  0  0  0  0  0  0  0
    0.7500   -1.2990    0.0000 C   0  0  0  0  0  0  0  0  0  0  0  0
    1.5000    0.0000    0.0000 C   0  0  0  0  0  0  0  0  0  0  0  0
    0.7500    1.2990    0.0000 C   0  0  0  0  0  0  0  0  0  0  0  0
   -0.7500    1.2990    0.0000 C   0  0  0  0  0  0  0  0  0  0  0  0
   -1.7537    2.4138    0.0000 N   0  0  0  0  0  0  0  0  0  0  0  0
   -3.1240    1.8037    0.0000 C   0  0  0  0  0  0  0  0  0  0  0  0
   -4.4231    2.5537    0.0000 C   0  0  0  0  0  0  0  0  0  0  0  0
   -5.7221    1.8037    0.0000 O   0  0  0  0  0  0  0  0  0  0  0  0
   -4.4231    4.0537    0.0000 N   0  0  0  0  0  0  0  0  0  0  0  0
   -3.1240    4.8037    0.0000 C   0  0  0  0  0  0  0  0  0  0  0  0
   -3.1240    6.3037    0.0000 C   0  0  0  0  0  0  0  0  0  0  0  0
   -4.4231    7.0537    0.0000 O   0  0  0  0  0  0  0  0  0  0  0  0
   -5.7221    6.3037    0.0000 C   0  0  0  0  0  0  0  0  0  0  0  0
   -5.7221    4.8037    0.0000 C   0  0  0  0  0  0  0  0  0  0  0  0
   -2.9672    0.3119    0.0000 C   0  0  0  0  0  0  0  0  0  0  0  0
   -1.5000    0.0000    0.0000 C   0  0  0  0  0  0  0  0  0  0  0  0
   -0.7500   -1.2990    0.0000 C   0  0  0  0  0  0  0  0  0  0  0  0
   -0.7500   -3.8971    0.0000 N   0  0  0  0  0  0  0  0  0  0  0  0
   -3.7500   -6.4952    0.0000 C   0  0  0  0  0  0  0  0  0  0  0  0
  1  2  1  0
  2  3  1  0
  3  4  1  0
  4  5  2  0
  5  6  1  0
  6  7  2  0
  7  8  1  0
  8  9  1  0
  9 10  2  0
 10 11  1  0
 11 12  2  0
 12 13  1  0
 13 14  1  0
 14 15  1  0
 15 16  2  0
 16 17  1  0
 17 18  2  0
 18 19  1  0
 19 20  1  0
 20 21  1  0
 21 22  2  0
 21 23  1  0
 23 24  1  0
 24 25  1  0
 25 26  1  0
 26 27  1  0
 27 28  1  0
 20 29  2  0
 29 30  1  0
 30 31  2  0
 13 32  2  0
  8 33  2  0
 33  4  1  0
 32  9  1  0
 31 15  1  0
 30 18  1  0
 28 23  1  0
M  END
>  <Compound_ID>  (32) 
CHEMBL3643785

>  <Molecule Name>  (32) 
nan

>  <Molecular Weight>  (32) 
444.5

>  <AlogP>  (32) 
3.38

>  <Smiles>  (32) 
COCc1ccnc(-c2ccnc(Nc3ccc4[nH]c(C(=O)N5CCOCC5)cc4c3)n2)c1

>  <Standard Type>  (32) 
IC50

>  <Standard Relation>  (32) 
'='

>  <Standard Units>  (32) 
nM

>  <Standard Value>  (32) 
44.9

>  <Assay ChEMBL ID>  (32) 
CHEMBL3705803

>  <Assay Description>  (32) 
Kinase Glo Luminescence Kinase Assay: Recombinant human Syk (amino acids 342-635) was expressed as a fusion protein with an N-terminal GST tag, affinity-purified and deep-frozen at a concentration of approx. 50-100 uM in test buffer (25 mM HEPES pH7.5; 25 mM MgCl2; 5 mM MnCl2; 50 mM KCl; 0.2% BSA; 0.01% CHAPS; 100 uM Na3VO4; 0.5 mM DTT) and 10% glycerol at -80 C until use. The catalytic activity of the GST-Syk kinase fusion protein was determined using the Kinase Glo Luminescence Kinase test (Promega; V6712). In this homogeneous test the amount of ATP remaining after the kinase reaction is quantified by a luciferin-luciferase reaction using luminescence. The luminescence signal obtained correlates with the amount of ATP still present and thus correlates inversely with the activity of the protein kinase. The test compounds were dissolved in 100% DMSO at a concentration of 10 mM and diluted in DMSO to a concentration of 1 mM.

>  <BAO Format ID>  (32) 
BAO_0000357

>  <BAO Label>  (32) 
single protein format

>  <Assay Organism>  (32) 
Homo sapiens

>  <Target ChEMBL ID>  (32) 
CHEMBL2599

>  <Target Name>  (32) 
Tyrosine-protein kinase SYK

>  <Target Organism>  (32) 
Homo sapiens

>  <Target Type>  (32) 
SINGLE PROTEIN

>  <Document ChEMBL ID>  (32) 
CHEMBL3638486

>  <Source Description>  (32) 
BindingDB Database

>  <Document Journal>  (32) 
nan

>  <Document Year>  (32) 
2014.0

>  <Active>  (32) 
1.0

>  <bits>  (32) 
<rdkit.DataStructs.cDataStructs.ExplicitBitVect object at 0x00000193F34027A0>

>  <Group>  (32) 
G2

$$$$

     RDKit          2D

 26 28  0  0  0  0  0  0  0  0999 V2000
    3.0000   -7.7942    0.0000 C   0  0  0  0  0  0  0  0  0  0  0  0
    3.7500   -6.4952    0.0000 O   0  0  0  0  0  0  0  0  0  0  0  0
    3.0000   -5.1962    0.0000 C   0  0  0  0  0  0  0  0  0  0  0  0
    1.5000   -5.1962    0.0000 C   0  0  0  0  0  0  0  0  0  0  0  0
    0.7500   -3.8971    0.0000 C   0  0  0  0  0  0  0  0  0  0  0  0
    1.5000   -2.5981    0.0000 C   0  0  0  0  0  0  0  0  0  0  0  0
    0.7500   -1.2990    0.0000 C   0  0  0  0  0  0  0  0  0  0  0  0
    1.5000    0.0000    0.0000 C   0  0  0  0  0  0  0  0  0  0  0  0
    0.7500    1.2990    0.0000 N   0  0  0  0  0  0  0  0  0  0  0  0
   -0.7500    1.2990    0.0000 C   0  0  0  0  0  0  0  0  0  0  0  0
   -1.7537    2.4138    0.0000 N   0  0  0  0  0  0  0  0  0  0  0  0
   -3.1240    1.8037    0.0000 C   0  0  0  0  0  0  0  0  0  0  0  0
   -2.9672    0.3119    0.0000 C   0  0  0  0  0  0  0  0  0  0  0  0
   -4.0819   -0.6918    0.0000 C   0  0  0  0  0  0  0  0  0  0  0  0
   -3.7701   -2.1590    0.0000 O   0  0  0  0  0  0  0  0  0  0  0  0
   -5.5085   -0.2283    0.0000 N   0  0  0  0  0  0  0  0  0  0  0  0
   -6.6232   -1.2320    0.0000 C   0  0  0  0  0  0  0  0  0  0  0  0
   -8.0498   -0.7685    0.0000 C   0  0  0  0  0  0  0  0  0  0  0  0
   -6.3114   -2.6992    0.0000 C   0  0  0  0  0  0  0  0  0  0  0  0
   -7.4261   -3.7029    0.0000 O   0  0  0  0  0  0  0  0  0  0  0  0
   -1.5000    0.0000    0.0000 C   0  0  0  0  0  0  0  0  0  0  0  0
   -0.7500   -1.2990    0.0000 N   0  0  0  0  0  0  0  0  0  0  0  0
    3.0000   -2.5981    0.0000 C   0  0  0  0  0  0  0  0  0  0  0  0
    3.7500   -3.8971    0.0000 C   0  0  0  0  0  0  0  0  0  0  0  0
    5.2500   -3.8971    0.0000 O   0  0  0  0  0  0  0  0  0  0  0  0
    6.0000   -2.5981    0.0000 C   0  0  0  0  0  0  0  0  0  0  0  0
  1  2  1  0
  2  3  1  0
  3  4  2  0
  4  5  1  0
  5  6  2  0
  6  7  1  0
  7  8  2  0
  8  9  1  0
  9 10  2  0
 10 11  1  0
 11 12  1  0
 12 13  2  0
 13 14  1  0
 14 15  2  0
 14 16  1  0
 16 17  1  0
 17 18  1  0
 17 19  1  0
 19 20  1  0
 13 21  1  0
 21 22  2  0
  6 23  1  0
 23 24  2  0
 24 25  1  0
 25 26  1  0
 24  3  1  0
 22  7  1  0
 21 10  1  0
M  END
>  <Compound_ID>  (33) 
CHEMBL2348851

>  <Molecule Name>  (33) 
nan

>  <Molecular Weight>  (33) 
356.38

>  <AlogP>  (33) 
1.75

>  <Smiles>  (33) 
COc1ccc(-c2cnc3[nH]cc(C(=O)NC(C)CO)c3n2)cc1OC

>  <Standard Type>  (33) 
IC50

>  <Standard Relation>  (33) 
'='

>  <Standard Units>  (33) 
nM

>  <Standard Value>  (33) 
35.0

>  <Assay ChEMBL ID>  (33) 
CHEMBL2350855

>  <Assay Description>  (33) 
Inhibition of human recombinant truncated SYK (360 to 365 amino acid residues) using N-terminally biotinylated EPEGDYEEVLE peptide as substrate assessed as inhibition of [33P]-ATP incorporation incubated for 10 mins prior to substrate addition measured after 15 mins by scintillation counting

>  <BAO Format ID>  (33) 
BAO_0000357

>  <BAO Label>  (33) 
single protein format

>  <Assay Organism>  (33) 
Homo sapiens

>  <Target ChEMBL ID>  (33) 
CHEMBL2599

>  <Target Name>  (33) 
Tyrosine-protein kinase SYK

>  <Target Organism>  (33) 
Homo sapiens

>  <Target Type>  (33) 
SINGLE PROTEIN

>  <Document ChEMBL ID>  (33) 
CHEMBL2346624

>  <Source Description>  (33) 
Scientific Literature

>  <Document Journal>  (33) 
J Med Chem

>  <Document Year>  (33) 
2013.0

>  <Active>  (33) 
1.0

>  <bits>  (33) 
<rdkit.DataStructs.cDataStructs.ExplicitBitVect object at 0x00000193F3402180>

>  <Group>  (33) 
G2

$$$$

     RDKit          2D

 34 39  0  0  0  0  0  0  0  0999 V2000
    0.8389    9.5533    0.0000 C   0  0  0  0  0  0  0  0  0  0  0  0
    0.5271    8.0861    0.0000 C   0  0  0  0  0  0  0  0  0  0  0  0
    1.6418    7.0824    0.0000 N   0  0  0  0  0  0  0  0  0  0  0  0
    1.3299    5.6152    0.0000 C   0  0  0  0  0  0  0  0  0  0  0  0
   -0.0967    5.1517    0.0000 C   0  0  0  0  0  0  0  0  0  0  0  0
   -0.4086    3.6844    0.0000 C   0  0  0  0  0  0  0  0  0  0  0  0
    0.7062    2.6807    0.0000 C   0  0  0  0  0  0  0  0  0  0  0  0
    0.3943    1.2135    0.0000 N   0  0  0  0  0  0  0  0  0  0  0  0
    1.2760    0.0000    0.0000 C   0  0  0  0  0  0  0  0  0  0  0  0
    0.3943   -1.2135    0.0000 C   0  0  0  0  0  0  0  0  0  0  0  0
   -1.0323   -0.7500    0.0000 N   0  0  0  0  0  0  0  0  0  0  0  0
   -1.0323    0.7500    0.0000 C   0  0  0  0  0  0  0  0  0  0  0  0
   -2.1470    1.7537    0.0000 C   0  0  0  0  0  0  0  0  0  0  0  0
   -3.5736    1.2902    0.0000 N   0  0  0  0  0  0  0  0  0  0  0  0
   -4.6883    2.2939    0.0000 C   0  0  0  0  0  0  0  0  0  0  0  0
   -4.3764    3.7611    0.0000 C   0  0  0  0  0  0  0  0  0  0  0  0
   -5.4912    4.7648    0.0000 C   0  0  0  0  0  0  0  0  0  0  0  0
   -6.9177    4.3013    0.0000 C   0  0  0  0  0  0  0  0  0  0  0  0
   -8.0325    5.3050    0.0000 N   0  0  0  0  0  0  0  0  0  0  0  0
   -7.7206    6.7722    0.0000 C   0  0  0  0  0  0  0  0  0  0  0  0
   -8.8353    7.7759    0.0000 C   0  0  0  0  0  0  0  0  0  0  0  0
  -10.2619    7.3123    0.0000 N   0  0  0  0  0  0  0  0  0  0  0  0
  -11.3766    8.3160    0.0000 C   0  0  0  0  0  0  0  0  0  0  0  0
  -11.4551    9.8140    0.0000 C   0  0  0  0  0  0  0  0  0  0  0  0
  -12.9531    9.7355    0.0000 O   0  0  0  0  0  0  0  0  0  0  0  0
  -12.8746    8.2375    0.0000 C   0  0  0  0  0  0  0  0  0  0  0  0
  -10.5738    5.8451    0.0000 C   0  0  0  0  0  0  0  0  0  0  0  0
   -9.4590    4.8414    0.0000 C   0  0  0  0  0  0  0  0  0  0  0  0
   -7.2296    2.8340    0.0000 C   0  0  0  0  0  0  0  0  0  0  0  0
   -6.1149    1.8303    0.0000 C   0  0  0  0  0  0  0  0  0  0  0  0
   -1.8351    3.2209    0.0000 N   0  0  0  0  0  0  0  0  0  0  0  0
   -1.2114    6.1554    0.0000 N   0  0  0  0  0  0  0  0  0  0  0  0
   -0.8995    7.6226    0.0000 C   0  0  0  0  0  0  0  0  0  0  0  0
   -2.0143    8.6263    0.0000 N   0  0  0  0  0  0  0  0  0  0  0  0
  1  2  1  0
  2  3  2  0
  3  4  1  0
  4  5  2  0
  5  6  1  0
  6  7  2  0
  7  8  1  0
  8  9  1  0
  9 10  2  0
 10 11  1  0
 11 12  2  0
 12 13  1  0
 13 14  1  0
 14 15  1  0
 15 16  2  0
 16 17  1  0
 17 18  2  0
 18 19  1  0
 19 20  1  0
 20 21  1  0
 21 22  1  0
 22 23  1  0
 23 24  1  0
 24 25  1  0
 25 26  1  0
 22 27  1  0
 27 28  1  0
 18 29  1  0
 29 30  2  0
 13 31  2  0
  5 32  1  0
 32 33  2  0
 33 34  1  0
 33  2  1  0
 31  6  1  0
 12  8  1  0
 30 15  1  0
 28 19  1  0
 26 23  1  0
M  END
>  <Compound_ID>  (34) 
CHEMBL3917084

>  <Molecule Name>  (34) 
nan

>  <Molecular Weight>  (34) 
457.54

>  <AlogP>  (34) 
2.34

>  <Smiles>  (34) 
Cc1ncc(-c2cn3ccnc3c(Nc3ccc(N4CCN(C5COC5)CC4)cc3)n2)nc1N

>  <Standard Type>  (34) 
IC50

>  <Standard Relation>  (34) 
'='

>  <Standard Units>  (34) 
nM

>  <Standard Value>  (34) 
6.2

>  <Assay ChEMBL ID>  (34) 
CHEMBL3888106

>  <Assay Description>  (34) 
High Throughput Syk Biochemical Assay: Syk activity was measured using KinEASE (Cisbio), a time-resolved fluorescence resonance energy transfer (TR-FRET) immunoassay. In this assay, Syk-catalyzes the phosphorylation of a XL665-labeled peptide substrate. Europium conjugated phospho-tyrosine specific antibody binds the resulting phosphorylated peptide. Formation of phosphorylated peptide is quantified by TR-FRET with Europium as the donor and XL665 the acceptor in a 2-step endpoint assay. In brief, test compounds serially diluted in DMSO were delivered into Corning white, low volume, non-binding 384 well plates using the Echo 550 acoustic liquid dispenser (Labcyte®). Syk enzyme and substrates were dispensed into assay plates using a Multi-Flo (Bio-Tek Instruments). The standard 5 μL reaction mixture contained 20 μM ATP, 1 μM biotinylated peptide, 0.015 nM of Syk in reaction buffer (50 mM Hepes, pH 7.0, 0.02% NaN3, 0.1% BSA, 0.1 mM Orthovanadate, 5 mM MgCl2, 1 mM DTT, 0.025% NP-40). After 30 minutes of incubati

>  <BAO Format ID>  (34) 
BAO_0000357

>  <BAO Label>  (34) 
single protein format

>  <Assay Organism>  (34) 
Homo sapiens

>  <Target ChEMBL ID>  (34) 
CHEMBL2599

>  <Target Name>  (34) 
Tyrosine-protein kinase SYK

>  <Target Organism>  (34) 
Homo sapiens

>  <Target Type>  (34) 
SINGLE PROTEIN

>  <Document ChEMBL ID>  (34) 
CHEMBL3886190

>  <Source Description>  (34) 
BindingDB Database

>  <Document Journal>  (34) 
nan

>  <Document Year>  (34) 
2016.0

>  <Active>  (34) 
1.0

>  <bits>  (34) 
<rdkit.DataStructs.cDataStructs.ExplicitBitVect object at 0x00000193F3400660>

>  <Group>  (34) 
G2

$$$$

     RDKit          2D

 22 24  0  0  0  0  0  0  0  0999 V2000
    3.0000    0.0000    0.0000 C   0  0  0  0  0  0  0  0  0  0  0  0
    1.5000    0.0000    0.0000 C   0  0  0  0  0  0  0  0  0  0  0  0
    0.7500   -1.2990    0.0000 C   0  0  0  0  0  0  0  0  0  0  0  0
   -0.7500   -1.2990    0.0000 C   0  0  0  0  0  0  0  0  0  0  0  0
   -1.5000   -2.5981    0.0000 C   0  0  0  0  0  0  0  0  0  0  0  0
   -1.5000    0.0000    0.0000 C   0  0  0  0  0  0  0  0  0  0  0  0
   -0.7500    1.2990    0.0000 C   0  0  0  0  0  0  0  0  0  0  0  0
   -1.5000    2.5981    0.0000 N   0  0  0  0  0  0  0  0  0  0  0  0
   -0.7500    3.8971    0.0000 C   0  0  0  0  0  0  0  0  0  0  0  0
    0.7500    3.8971    0.0000 N   0  0  0  0  0  0  0  0  0  0  0  0
    1.5000    5.1962    0.0000 C   0  0  0  0  0  0  0  0  0  0  0  0
    0.7500    6.4952    0.0000 C   0  0  0  0  0  0  0  0  0  0  0  0
   -0.7500    6.4952    0.0000 C   0  0  0  0  0  0  0  0  0  0  0  0
   -1.5000    7.7942    0.0000 C   0  0  0  0  0  0  0  0  0  0  0  0
   -2.9918    7.9510    0.0000 N   0  0  0  0  0  0  0  0  0  0  0  0
   -3.3037    9.4182    0.0000 C   0  0  0  0  0  0  0  0  0  0  0  0
   -4.6740   10.0283    0.0000 C   0  0  0  0  0  0  0  0  0  0  0  0
   -4.8308   11.5201    0.0000 O   0  0  0  0  0  0  0  0  0  0  0  0
   -2.0046   10.1682    0.0000 C   0  0  0  0  0  0  0  0  0  0  0  0
   -0.8899    9.1645    0.0000 S   0  0  0  0  0  0  0  0  0  0  0  0
   -1.5000    5.1962    0.0000 N   0  0  0  0  0  0  0  0  0  0  0  0
    0.7500    1.2990    0.0000 C   0  0  0  0  0  0  0  0  0  0  0  0
  1  2  1  0
  2  3  2  0
  3  4  1  0
  4  5  1  0
  4  6  2  0
  6  7  1  0
  7  8  1  0
  8  9  1  0
  9 10  2  0
 10 11  1  0
 11 12  2  0
 12 13  1  0
 13 14  1  0
 14 15  2  0
 15 16  1  0
 16 17  1  0
 17 18  1  0
 16 19  2  0
 19 20  1  0
 13 21  2  0
  7 22  2  0
 22  2  1  0
 21  9  1  0
 20 14  1  0
M  END
>  <Compound_ID>  (35) 
CHEMBL511811

>  <Molecule Name>  (35) 
nan

>  <Molecular Weight>  (35) 
312.4

>  <AlogP>  (35) 
3.45

>  <Smiles>  (35) 
Cc1cc(C)cc(Nc2nccc(-c3nc(CO)cs3)n2)c1

>  <Standard Type>  (35) 
IC50

>  <Standard Relation>  (35) 
'='

>  <Standard Units>  (35) 
nM

>  <Standard Value>  (35) 
50.0

>  <Assay ChEMBL ID>  (35) 
CHEMBL945314

>  <Assay Description>  (35) 
Inhibition of SYK-mediated FCepsilonRI signaling activity by mast cell degranulation assay

>  <BAO Format ID>  (35) 
BAO_0000357

>  <BAO Label>  (35) 
single protein format

>  <Assay Organism>  (35) 
None

>  <Target ChEMBL ID>  (35) 
CHEMBL2599

>  <Target Name>  (35) 
Tyrosine-protein kinase SYK

>  <Target Organism>  (35) 
Homo sapiens

>  <Target Type>  (35) 
SINGLE PROTEIN

>  <Document ChEMBL ID>  (35) 
CHEMBL1152268

>  <Source Description>  (35) 
Scientific Literature

>  <Document Journal>  (35) 
Bioorg Med Chem Lett

>  <Document Year>  (35) 
2008.0

>  <Active>  (35) 
1.0

>  <bits>  (35) 
<rdkit.DataStructs.cDataStructs.ExplicitBitVect object at 0x00000193F3403370>

>  <Group>  (35) 
G2

$$$$

     RDKit          2D

 35 42  0  0  0  0  0  0  0  0999 V2000
    7.0384   -5.9220    0.0000 C   0  0  0  0  0  0  0  0  0  0  0  0
    6.3474   -4.5907    0.0000 N   0  0  0  0  0  0  0  0  0  0  0  0
    4.8489   -4.5234    0.0000 C   0  0  0  0  0  0  0  0  0  0  0  0
    4.0414   -5.7874    0.0000 C   0  0  0  0  0  0  0  0  0  0  0  0
    2.5382   -5.8249    0.0000 C   0  0  0  0  0  0  0  0  0  0  0  0
    3.2490   -4.5040    0.0000 O   0  0  0  0  0  0  0  0  0  0  0  0
    2.6595   -3.1247    0.0000 C   0  0  0  0  0  0  0  0  0  0  0  0
    3.6464   -1.9951    0.0000 C   0  0  0  0  0  0  0  0  0  0  0  0
    4.1580   -3.1920    0.0000 C   0  0  0  0  0  0  0  0  0  0  0  0
    4.9655   -1.9279    0.0000 O   0  0  0  0  0  0  0  0  0  0  0  0
    6.4640   -1.9952    0.0000 C   0  0  0  0  0  0  0  0  0  0  0  0
    1.2135   -2.7256    0.0000 N   0  0  0  0  0  0  0  0  0  0  0  0
    0.7500   -1.2990    0.0000 C   0  0  0  0  0  0  0  0  0  0  0  0
    1.5000    0.0000    0.0000 C   0  0  0  0  0  0  0  0  0  0  0  0
    0.7500    1.2990    0.0000 C   0  0  0  0  0  0  0  0  0  0  0  0
   -0.7500    1.2990    0.0000 C   0  0  0  0  0  0  0  0  0  0  0  0
   -1.5000    0.0000    0.0000 C   0  0  0  0  0  0  0  0  0  0  0  0
   -0.7500   -1.2990    0.0000 C   0  0  0  0  0  0  0  0  0  0  0  0
   -1.2135   -2.7256    0.0000 C   0  0  0  0  0  0  0  0  0  0  0  0
   -2.5518   -3.5691    0.0000 C   0  0  0  0  0  0  0  0  0  0  0  0
   -2.6191   -5.0676    0.0000 C   0  0  0  0  0  0  0  0  0  0  0  0
   -1.3550   -5.8751    0.0000 C   0  0  0  0  0  0  0  0  0  0  0  0
   -1.0212   -7.3375    0.0000 C   0  0  0  0  0  0  0  0  0  0  0  0
   -1.8846   -8.5641    0.0000 C   0  0  0  0  0  0  0  0  0  0  0  0
   -1.2541   -9.9251    0.0000 C   0  0  0  0  0  0  0  0  0  0  0  0
    0.2399  -10.0596    0.0000 C   0  0  0  0  0  0  0  0  0  0  0  0
    1.1033   -8.8330    0.0000 C   0  0  0  0  0  0  0  0  0  0  0  0
    0.4728   -7.4720    0.0000 C   0  0  0  0  0  0  0  0  0  0  0  0
    1.0623   -6.0927    0.0000 N   0  0  0  0  0  0  0  0  0  0  0  0
   -0.0673   -5.1058    0.0000 C   0  0  0  0  0  0  0  0  0  0  0  0
   -0.0000   -3.6073    0.0000 C   0  0  0  0  0  0  0  0  0  0  0  0
   -4.0650   -5.4667    0.0000 C   0  0  0  0  0  0  0  0  0  0  0  0
   -4.5921   -6.8710    0.0000 O   0  0  0  0  0  0  0  0  0  0  0  0
   -4.8913   -4.2148    0.0000 N   0  0  0  0  0  0  0  0  0  0  0  0
   -3.9561   -3.0421    0.0000 C   0  0  0  0  0  0  0  0  0  0  0  0
  1  2  1  0
  3  2  1  6
  3  4  1  0
  5  4  1  6
  5  6  1  0
  6  7  1  0
  7  8  1  1
  7  9  1  0
  9 10  1  6
 10 11  1  0
  7 12  1  0
 12 13  1  0
 13 14  2  0
 14 15  1  0
 15 16  2  0
 16 17  1  0
 17 18  2  0
 18 19  1  0
 19 20  2  0
 20 21  1  0
 21 22  2  0
 22 23  1  0
 23 24  2  0
 24 25  1  0
 25 26  2  0
 26 27  1  0
 27 28  2  0
 28 29  1  0
 29 30  1  0
 30 31  2  0
 21 32  1  0
 32 33  2  0
 32 34  1  0
 34 35  1  0
  9  3  1  0
 31 12  1  0
 29  5  1  0
 18 13  1  0
 31 19  1  0
 35 20  1  0
 30 22  1  0
 28 23  1  0
M  END
>  <Compound_ID>  (36) 
CHEMBL388978

>  <Molecule Name>  (36) 
STAUROSPORINE

>  <Molecular Weight>  (36) 
466.54

>  <AlogP>  (36) 
4.35

>  <Smiles>  (36) 
CN[C@@H]1C[C@H]2O[C@@](C)([C@@H]1OC)n1c3ccccc3c3c4c(c5c6ccccc6n2c5c31)C(=O)NC4

>  <Standard Type>  (36) 
IC50

>  <Standard Relation>  (36) 
'='

>  <Standard Units>  (36) 
nM

>  <Standard Value>  (36) 
60.0

>  <Assay ChEMBL ID>  (36) 
CHEMBL3118638

>  <Assay Description>  (36) 
Inhibition of SYK (unknown origin)

>  <BAO Format ID>  (36) 
BAO_0000357

>  <BAO Label>  (36) 
single protein format

>  <Assay Organism>  (36) 
Homo sapiens

>  <Target ChEMBL ID>  (36) 
CHEMBL2599

>  <Target Name>  (36) 
Tyrosine-protein kinase SYK

>  <Target Organism>  (36) 
Homo sapiens

>  <Target Type>  (36) 
SINGLE PROTEIN

>  <Document ChEMBL ID>  (36) 
CHEMBL3112393

>  <Source Description>  (36) 
Scientific Literature

>  <Document Journal>  (36) 
Eur J Med Chem

>  <Document Year>  (36) 
2014.0

>  <Active>  (36) 
1.0

>  <bits>  (36) 
<rdkit.DataStructs.cDataStructs.ExplicitBitVect object at 0x00000193F34007B0>

>  <Group>  (36) 
G2

$$$$

     RDKit          2D

 28 31  0  0  0  0  0  0  0  0999 V2000
    3.0000    0.0000    0.0000 C   0  0  0  0  0  0  0  0  0  0  0  0
    1.5000    0.0000    0.0000 C   0  0  0  0  0  0  0  0  0  0  0  0
    0.7500   -1.2990    0.0000 C   0  0  0  0  0  0  0  0  0  0  0  0
   -0.7500   -1.2990    0.0000 C   0  0  0  0  0  0  0  0  0  0  0  0
   -1.5000   -2.5981    0.0000 N   0  0  0  0  0  0  0  0  0  0  0  0
   -3.0000   -2.5981    0.0000 C   0  0  0  0  0  0  0  0  0  0  0  0
   -3.7500   -1.2990    0.0000 C   0  0  0  0  0  0  0  0  0  0  0  0
   -5.2500   -1.2990    0.0000 C   0  0  0  0  0  0  0  0  0  0  0  0
   -6.0000    0.0000    0.0000 C   0  0  0  0  0  0  0  0  0  0  0  0
   -5.2500    1.2990    0.0000 F   0  0  0  0  0  0  0  0  0  0  0  0
   -7.5000    0.0000    0.0000 F   0  0  0  0  0  0  0  0  0  0  0  0
   -6.0000   -2.5981    0.0000 C   0  0  0  0  0  0  0  0  0  0  0  0
   -5.2500   -3.8971    0.0000 C   0  0  0  0  0  0  0  0  0  0  0  0
   -3.7500   -3.8971    0.0000 N   0  0  0  0  0  0  0  0  0  0  0  0
   -1.5000    0.0000    0.0000 N   0  0  0  0  0  0  0  0  0  0  0  0
   -0.7500    1.2990    0.0000 C   0  0  0  0  0  0  0  0  0  0  0  0
   -1.5000    2.5981    0.0000 C   0  0  0  0  0  0  0  0  0  0  0  0
   -0.7500    3.8971    0.0000 C   0  0  0  0  0  0  0  0  0  0  0  0
   -1.5000    5.1962    0.0000 C   0  0  0  0  0  0  0  0  0  0  0  0
   -3.0000    5.1962    0.0000 C   0  0  0  0  0  0  0  0  0  0  0  0
   -3.7500    6.4952    0.0000 C   0  0  0  0  0  0  0  0  0  0  0  0
   -5.0490    5.7452    0.0000 O   0  0  0  0  0  0  0  0  0  0  0  0
   -2.4510    7.2452    0.0000 C   0  0  0  0  0  0  0  0  0  0  0  0
   -3.2010    8.5442    0.0000 C   0  0  0  0  0  0  0  0  0  0  0  0
   -4.5000    7.7942    0.0000 C   0  0  0  0  0  0  0  0  0  0  0  0
   -3.7500    3.8971    0.0000 N   0  0  0  0  0  0  0  0  0  0  0  0
   -3.0000    2.5981    0.0000 C   0  0  0  0  0  0  0  0  0  0  0  0
    0.7500    1.2990    0.0000 C   0  0  0  0  0  0  0  0  0  0  0  0
  1  2  1  0
  2  3  2  0
  3  4  1  0
  4  5  1  0
  5  6  1  0
  6  7  2  0
  7  8  1  0
  8  9  1  0
  9 10  1  0
  9 11  1  0
  8 12  2  0
 12 13  1  0
 13 14  2  0
  4 15  2  0
 15 16  1  0
 16 17  1  0
 17 18  2  0
 18 19  1  0
 19 20  2  0
 20 21  1  0
 21 22  1  0
 21 23  1  0
 23 24  1  0
 24 25  1  0
 20 26  1  0
 26 27  2  0
 16 28  2  0
 28  2  1  0
 14  6  1  0
 27 17  1  0
 25 21  1  0
M  END
>  <Compound_ID>  (37) 
CHEMBL3956296

>  <Molecule Name>  (37) 
nan

>  <Molecular Weight>  (37) 
382.41

>  <AlogP>  (37) 
4.90

>  <Smiles>  (37) 
Cc1cc(Nc2cc(C(F)F)ccn2)nc(-c2ccc(C3(O)CCC3)nc2)c1

>  <Standard Type>  (37) 
IC50

>  <Standard Relation>  (37) 
'='

>  <Standard Units>  (37) 
nM

>  <Standard Value>  (37) 
5.0

>  <Assay ChEMBL ID>  (37) 
CHEMBL3887083

>  <Assay Description>  (37) 
Homogeneous Time-Resolved Fluorescence (HTRF) Assay: A recombinant GST-hSyk fusion protein was used to measure potency of compounds to inhibit human Syk activity. The recombinant human GST-Syk (Carna Biosciences #08-176) (5 pM final concentration) was incubated with various concentrations of the inhibitor diluted in DMSO (0.1% final concentration) for 10 minutes at room temperature in 15 mM Tris-HCl (pH 7.5), 0.01% tween 20, 2 mM DTT in 384 well plate format. To initiate the reaction the biotinylated substrate peptide (250 nM final concentration) that contains the phosphorylation site for Syk was added with magnesium (5 mM final concentration) and ATP (25 uM final concentration). Final volume of the reaction was 10 uL. Phosphorylation of the peptide was allowed to proceed for 45x at room temperature. To quench the reaction and detect the phosphorylated product, 2 nM of a Europium-anti-phosphotyrosine antibody (Perkin Elmer #AD0161) and 70 nM SA-APC (Perkin-Elmer #CR130-100) were added together in 15 mM Tris pH 7.5.

>  <BAO Format ID>  (37) 
BAO_0000357

>  <BAO Label>  (37) 
single protein format

>  <Assay Organism>  (37) 
Homo sapiens

>  <Target ChEMBL ID>  (37) 
CHEMBL2599

>  <Target Name>  (37) 
Tyrosine-protein kinase SYK

>  <Target Organism>  (37) 
Homo sapiens

>  <Target Type>  (37) 
SINGLE PROTEIN

>  <Document ChEMBL ID>  (37) 
CHEMBL3886158

>  <Source Description>  (37) 
BindingDB Database

>  <Document Journal>  (37) 
nan

>  <Document Year>  (37) 
2015.0

>  <Active>  (37) 
1.0

>  <bits>  (37) 
<rdkit.DataStructs.cDataStructs.ExplicitBitVect object at 0x00000193F3402E30>

>  <Group>  (37) 
G2

$$$$

     RDKit          2D

 25 27  0  0  0  0  0  0  0  0999 V2000
    3.7500   -1.2990    0.0000 N   0  0  0  0  0  0  0  0  0  0  0  0
    3.0000    0.0000    0.0000 C   0  0  0  0  0  0  0  0  0  0  0  0
    3.7500    1.2990    0.0000 O   0  0  0  0  0  0  0  0  0  0  0  0
    1.5000    0.0000    0.0000 C   0  0  0  0  0  0  0  0  0  0  0  0
    0.7500   -1.2990    0.0000 C   0  0  0  0  0  0  0  0  0  0  0  0
   -0.7500   -1.2990    0.0000 C   0  0  0  0  0  0  0  0  0  0  0  0
   -1.5000    0.0000    0.0000 C   0  0  0  0  0  0  0  0  0  0  0  0
   -3.0000    0.0000    0.0000 N   0  0  0  0  0  0  0  0  0  0  0  0
   -3.7500    1.2990    0.0000 C   0  0  0  0  0  0  0  0  0  0  0  0
   -3.0000    2.5981    0.0000 C   0  0  0  0  0  0  0  0  0  0  0  0
   -3.7500    3.8971    0.0000 C   0  0  0  0  0  0  0  0  0  0  0  0
   -5.2500    3.8971    0.0000 C   0  0  0  0  0  0  0  0  0  0  0  0
   -6.0000    2.5981    0.0000 C   0  0  0  0  0  0  0  0  0  0  0  0
   -5.2500    1.2990    0.0000 C   0  0  0  0  0  0  0  0  0  0  0  0
   -6.0000    0.0000    0.0000 N   0  0  0  0  0  0  0  0  0  0  0  0
   -0.7500    1.2990    0.0000 C   0  0  0  0  0  0  0  0  0  0  0  0
    0.7500    1.2990    0.0000 C   0  0  0  0  0  0  0  0  0  0  0  0
    1.5000    2.5981    0.0000 N   0  0  0  0  0  0  0  0  0  0  0  0
    0.7500    3.8971    0.0000 C   0  0  0  0  0  0  0  0  0  0  0  0
    1.5000    5.1962    0.0000 C   0  0  0  0  0  0  0  0  0  0  0  0
    0.7500    6.4952    0.0000 C   0  0  0  0  0  0  0  0  0  0  0  0
   -0.7500    6.4952    0.0000 C   0  0  0  0  0  0  0  0  0  0  0  0
   -1.5000    5.1962    0.0000 C   0  0  0  0  0  0  0  0  0  0  0  0
   -0.7500    3.8971    0.0000 C   0  0  0  0  0  0  0  0  0  0  0  0
   -1.5000    2.5981    0.0000 Br  0  0  0  0  0  0  0  0  0  0  0  0
  1  2  1  0
  2  3  2  0
  2  4  1  0
  4  5  2  0
  5  6  1  0
  6  7  2  0
  7  8  1  0
  8  9  1  0
  9 10  1  0
 10 11  1  0
 11 12  1  0
 12 13  1  0
 13 14  1  0
 14 15  1  0
  7 16  1  0
 16 17  2  0
 17 18  1  0
 18 19  1  0
 19 20  2  0
 20 21  1  0
 21 22  2  0
 22 23  1  0
 23 24  2  0
 24 25  1  0
 17  4  1  0
 24 19  1  0
 14  9  1  0
M  END
>  <Compound_ID>  (38) 
CHEMBL3919955

>  <Molecule Name>  (38) 
nan

>  <Molecular Weight>  (38) 
403.32

>  <AlogP>  (38) 
3.97

>  <Smiles>  (38) 
NC(=O)c1ccc(NC2CCCCC2N)cc1Nc1ccccc1Br

>  <Standard Type>  (38) 
IC50

>  <Standard Relation>  (38) 
'='

>  <Standard Units>  (38) 
nM

>  <Standard Value>  (38) 
33.0

>  <Assay ChEMBL ID>  (38) 
CHEMBL3887085

>  <Assay Description>  (38) 
Aurora B Kinase Inhibition Assay: The in vitro inhibitory activity of the compound against Aurora B kinase activity was assayed with reference to a method described in patent publication (JP-A-2008-81492). The purified recombinant human Aurora B protein used in the test was purchased from Carna Biosciences, Inc. For the inhibitory activity assay on the compound, the compound of the present invention was first serially diluted with dimethyl sulfoxide (DMSO). Next, the purified human Aurora B protein FL-Peptide 21 (Caliper Life Sciences, Inc., final concentration: 100 nM), magnesium chloride (final concentration: 1 mM), ATP (final concentration: 40 uM), and each DMSO solution of the compound of the present invention (final concentration of DMSO: 5%) were added into a buffer solution for reaction (20 mM HEPES pH 7.4, 2 mM DTT, 0.01% Tween-20), and the mixture was then incubated at 25° C. for 60 minutes to perform kinase reaction. The kinase reaction was stopped by the addition thereto of IMAP.TM.

>  <BAO Format ID>  (38) 
BAO_0000357

>  <BAO Label>  (38) 
single protein format

>  <Assay Organism>  (38) 
Homo sapiens

>  <Target ChEMBL ID>  (38) 
CHEMBL2599

>  <Target Name>  (38) 
Tyrosine-protein kinase SYK

>  <Target Organism>  (38) 
Homo sapiens

>  <Target Type>  (38) 
SINGLE PROTEIN

>  <Document ChEMBL ID>  (38) 
CHEMBL3886160

>  <Source Description>  (38) 
BindingDB Database

>  <Document Journal>  (38) 
nan

>  <Document Year>  (38) 
2015.0

>  <Active>  (38) 
1.0

>  <bits>  (38) 
<rdkit.DataStructs.cDataStructs.ExplicitBitVect object at 0x00000193F3402C00>

>  <Group>  (38) 
G2

$$$$

     RDKit          2D

 29 33  0  0  0  0  0  0  0  0999 V2000
    2.2655   10.0169    0.0000 C   0  0  0  0  0  0  0  0  0  0  0  0
    0.8389    9.5533    0.0000 O   0  0  0  0  0  0  0  0  0  0  0  0
    0.5271    8.0861    0.0000 C   0  0  0  0  0  0  0  0  0  0  0  0
    1.6418    7.0824    0.0000 C   0  0  0  0  0  0  0  0  0  0  0  0
    1.3299    5.6152    0.0000 C   0  0  0  0  0  0  0  0  0  0  0  0
   -0.0967    5.1517    0.0000 C   0  0  0  0  0  0  0  0  0  0  0  0
   -0.4086    3.6844    0.0000 C   0  0  0  0  0  0  0  0  0  0  0  0
    0.7062    2.6807    0.0000 C   0  0  0  0  0  0  0  0  0  0  0  0
    0.3943    1.2135    0.0000 C   0  0  0  0  0  0  0  0  0  0  0  0
    1.2760    0.0000    0.0000 N   0  0  0  0  0  0  0  0  0  0  0  0
    0.3943   -1.2135    0.0000 C   0  0  0  0  0  0  0  0  0  0  0  0
   -1.0323   -0.7500    0.0000 C   0  0  0  0  0  0  0  0  0  0  0  0
   -1.0323    0.7500    0.0000 N   0  0  0  0  0  0  0  0  0  0  0  0
   -2.1470    1.7537    0.0000 C   0  0  0  0  0  0  0  0  0  0  0  0
   -3.5736    1.2902    0.0000 N   0  0  0  0  0  0  0  0  0  0  0  0
   -4.6883    2.2939    0.0000 C   0  0  0  0  0  0  0  0  0  0  0  0
   -4.3764    3.7611    0.0000 C   0  0  0  0  0  0  0  0  0  0  0  0
   -5.4912    4.7648    0.0000 C   0  0  0  0  0  0  0  0  0  0  0  0
   -6.9177    4.3013    0.0000 C   0  0  0  0  0  0  0  0  0  0  0  0
   -8.2168    5.0513    0.0000 C   0  0  0  0  0  0  0  0  0  0  0  0
   -9.3315    4.0476    0.0000 N   0  0  0  0  0  0  0  0  0  0  0  0
   -8.7214    2.6772    0.0000 N   0  0  0  0  0  0  0  0  0  0  0  0
   -7.2296    2.8340    0.0000 C   0  0  0  0  0  0  0  0  0  0  0  0
   -6.1149    1.8303    0.0000 C   0  0  0  0  0  0  0  0  0  0  0  0
   -1.8351    3.2209    0.0000 N   0  0  0  0  0  0  0  0  0  0  0  0
   -1.2114    6.1554    0.0000 C   0  0  0  0  0  0  0  0  0  0  0  0
   -0.8995    7.6226    0.0000 C   0  0  0  0  0  0  0  0  0  0  0  0
   -2.0143    8.6263    0.0000 O   0  0  0  0  0  0  0  0  0  0  0  0
   -3.4408    8.1628    0.0000 C   0  0  0  0  0  0  0  0  0  0  0  0
  1  2  1  0
  2  3  1  0
  3  4  2  0
  4  5  1  0
  5  6  2  0
  6  7  1  0
  7  8  2  0
  8  9  1  0
  9 10  2  0
 10 11  1  0
 11 12  2  0
 12 13  1  0
 13 14  1  0
 14 15  1  0
 15 16  1  0
 16 17  2  0
 17 18  1  0
 18 19  2  0
 19 20  1  0
 20 21  2  0
 21 22  1  0
 22 23  1  0
 23 24  2  0
 14 25  2  0
  6 26  1  0
 26 27  2  0
 27 28  1  0
 28 29  1  0
 27  3  1  0
 25  7  1  0
 13  9  1  0
 24 16  1  0
 23 19  1  0
M  END
>  <Compound_ID>  (39) 
CHEMBL2170585

>  <Molecule Name>  (39) 
nan

>  <Molecular Weight>  (39) 
386.42

>  <AlogP>  (39) 
4.03

>  <Smiles>  (39) 
COc1ccc(-c2cc3nccn3c(Nc3ccc4cn[nH]c4c3)n2)cc1OC

>  <Standard Type>  (39) 
Ki

>  <Standard Relation>  (39) 
'='

>  <Standard Units>  (39) 
nM

>  <Standard Value>  (39) 
10.0

>  <Assay ChEMBL ID>  (39) 
CHEMBL2173408

>  <Assay Description>  (39) 
Inhibition of SYK

>  <BAO Format ID>  (39) 
BAO_0000357

>  <BAO Label>  (39) 
single protein format

>  <Assay Organism>  (39) 
None

>  <Target ChEMBL ID>  (39) 
CHEMBL2599

>  <Target Name>  (39) 
Tyrosine-protein kinase SYK

>  <Target Organism>  (39) 
Homo sapiens

>  <Target Type>  (39) 
SINGLE PROTEIN

>  <Document ChEMBL ID>  (39) 
CHEMBL2169784

>  <Source Description>  (39) 
Scientific Literature

>  <Document Journal>  (39) 
J Med Chem

>  <Document Year>  (39) 
2012.0

>  <Active>  (39) 
1.0

>  <bits>  (39) 
<rdkit.DataStructs.cDataStructs.ExplicitBitVect object at 0x00000193F3401AF0>

>  <Group>  (39) 
G2

$$$$

     RDKit          2D

 32 35  0  0  0  0  0  0  0  0999 V2000
    3.0000    0.0000    0.0000 C   0  0  0  0  0  0  0  0  0  0  0  0
    1.5000    0.0000    0.0000 C   0  0  0  0  0  0  0  0  0  0  0  0
    0.7500   -1.2990    0.0000 C   0  0  0  0  0  0  0  0  0  0  0  0
   -0.7500   -1.2990    0.0000 C   0  0  0  0  0  0  0  0  0  0  0  0
   -1.5000   -2.5981    0.0000 N   0  0  0  0  0  0  0  0  0  0  0  0
   -3.0000   -2.5981    0.0000 C   0  0  0  0  0  0  0  0  0  0  0  0
   -3.7500   -1.2990    0.0000 N   0  0  0  0  0  0  0  0  0  0  0  0
   -5.2500   -1.2990    0.0000 C   0  0  0  0  0  0  0  0  0  0  0  0
   -6.0000   -2.5981    0.0000 C   0  0  0  0  0  0  0  0  0  0  0  0
   -5.2500   -3.8971    0.0000 C   0  0  0  0  0  0  0  0  0  0  0  0
   -6.0000   -5.1962    0.0000 C   0  0  0  0  0  0  0  0  0  0  0  0
   -3.7500   -3.8971    0.0000 N   0  0  0  0  0  0  0  0  0  0  0  0
   -1.5000    0.0000    0.0000 C   0  0  0  0  0  0  0  0  0  0  0  0
   -0.7500    1.2990    0.0000 C   0  0  0  0  0  0  0  0  0  0  0  0
   -1.5000    2.5981    0.0000 C   0  0  0  0  0  0  0  0  0  0  0  0
   -2.9918    2.7549    0.0000 C   0  0  0  0  0  0  0  0  0  0  0  0
   -3.3037    4.2221    0.0000 N   0  0  0  0  0  0  0  0  0  0  0  0
   -2.0046    4.9721    0.0000 C   0  0  0  0  0  0  0  0  0  0  0  0
   -1.8478    6.4639    0.0000 C   0  0  0  0  0  0  0  0  0  0  0  0
   -3.3396    6.6207    0.0000 C   0  0  0  0  0  0  0  0  0  0  0  0
   -1.6910    7.9557    0.0000 O   0  0  0  0  0  0  0  0  0  0  0  0
   -0.3560    6.3071    0.0000 C   0  0  0  0  0  0  0  0  0  0  0  0
    0.2541    4.9368    0.0000 C   0  0  0  0  0  0  0  0  0  0  0  0
    1.7459    4.7800    0.0000 C   0  0  0  0  0  0  0  0  0  0  0  0
    2.6275    5.9935    0.0000 C   0  0  0  0  0  0  0  0  0  0  0  0
    4.1193    5.8367    0.0000 C   0  0  0  0  0  0  0  0  0  0  0  0
    5.0010    7.0502    0.0000 O   0  0  0  0  0  0  0  0  0  0  0  0
    4.7294    4.4664    0.0000 O   0  0  0  0  0  0  0  0  0  0  0  0
    2.0174    7.3638    0.0000 C   0  0  0  0  0  0  0  0  0  0  0  0
    0.5256    7.5206    0.0000 C   0  0  0  0  0  0  0  0  0  0  0  0
   -0.8899    3.9684    0.0000 S   0  0  0  0  0  0  0  0  0  0  0  0
    0.7500    1.2990    0.0000 C   0  0  0  0  0  0  0  0  0  0  0  0
  1  2  1  0
  2  3  2  0
  3  4  1  0
  4  5  1  0
  5  6  1  0
  6  7  2  0
  7  8  1  0
  8  9  2  0
  9 10  1  0
 10 11  1  0
 10 12  2  0
  4 13  2  0
 13 14  1  0
 14 15  1  0
 15 16  2  0
 16 17  1  0
 17 18  2  0
 18 19  1  0
 19 20  1  0
 19 21  1  0
 19 22  1  0
 22 23  1  0
 23 24  1  0
 24 25  1  0
 25 26  1  0
 26 27  2  0
 26 28  1  0
 25 29  1  0
 29 30  1  0
 18 31  1  0
 14 32  2  0
 32  2  1  0
 12  6  1  0
 31 15  1  0
 30 22  1  0
M  END
>  <Compound_ID>  (40) 
CHEMBL3928792

>  <Molecule Name>  (40) 
nan

>  <Molecular Weight>  (40) 
452.58

>  <AlogP>  (40) 
5.06

>  <Smiles>  (40) 
Cc1cc(Nc2nccc(C)n2)cc(-c2cnc(C(C)(O)C3CCC(C(=O)O)CC3)s2)c1

>  <Standard Type>  (40) 
IC50

>  <Standard Relation>  (40) 
'='

>  <Standard Units>  (40) 
nM

>  <Standard Value>  (40) 
13.0

>  <Assay ChEMBL ID>  (40) 
CHEMBL3888105

>  <Assay Description>  (40) 
Homogeneous Time-Resolved Fluorescence (HTRF) Assay: A recombinant GST-hSyk fusion protein was used to measure potency of compounds to inhibit human Syk activity. The recombinant human GST-Syk (Carna Biosciences #08-176) (5 pM final concentration) was incubated with various concentrations of the inhibitor diluted in DMSO (0.1% final concentration) for 10 minutes at room temperature in 15 mM Tris-HCl (pH 7.5), 0.01% tween 20, 2 mM DTT in 384 well plate format. To initiate the reaction the biotinylated substrate peptide (250 nM final concentration) that contains the phosphorylation site for Syk was added with magnesium (5 mM final concentration) and ATP (25 μM final concentration). Final volume of the reaction was 10 μL. Phosphorylation of the peptide was allowed to proceed for 45′ at room temperature. To quench the reaction and detect the phosphorylated product, 2 nM of a Europium-anti-phosphotyrosine antibody (Perkin Elmer #AD0161) and 70 nM SA-APC (Perkin-Elmer #CR130-100) were added together in 15 mM Tris pH 7.5, 40 mM

>  <BAO Format ID>  (40) 
BAO_0000357

>  <BAO Label>  (40) 
single protein format

>  <Assay Organism>  (40) 
Homo sapiens

>  <Target ChEMBL ID>  (40) 
CHEMBL2599

>  <Target Name>  (40) 
Tyrosine-protein kinase SYK

>  <Target Organism>  (40) 
Homo sapiens

>  <Target Type>  (40) 
SINGLE PROTEIN

>  <Document ChEMBL ID>  (40) 
CHEMBL3886579

>  <Source Description>  (40) 
BindingDB Database

>  <Document Journal>  (40) 
nan

>  <Document Year>  (40) 
2016.0

>  <Active>  (40) 
1.0

>  <bits>  (40) 
<rdkit.DataStructs.cDataStructs.ExplicitBitVect object at 0x00000193F3402F10>

>  <Group>  (40) 
G2

$$$$

     RDKit          2D

 33 36  0  0  0  0  0  0  0  0999 V2000
    4.5000    0.0000    0.0000 C   0  0  0  0  0  0  0  0  0  0  0  0
    3.0000    0.0000    0.0000 S   0  0  0  0  0  0  0  0  0  0  0  0
    3.0000    1.5000    0.0000 O   0  0  0  0  0  0  0  0  0  0  0  0
    3.0000   -1.5000    0.0000 O   0  0  0  0  0  0  0  0  0  0  0  0
    1.5000    0.0000    0.0000 N   0  0  0  0  0  0  0  0  0  0  0  0
    0.7500   -1.2990    0.0000 C   0  0  0  0  0  0  0  0  0  0  0  0
   -0.7500   -1.2990    0.0000 C   0  0  0  0  0  0  0  0  0  0  0  0
   -1.5000    0.0000    0.0000 N   0  0  0  0  0  0  0  0  0  0  0  0
   -3.0000    0.0000    0.0000 C   0  0  0  0  0  0  0  0  0  0  0  0
   -3.7500    1.2990    0.0000 C   0  0  0  0  0  0  0  0  0  0  0  0
   -5.2500    1.2990    0.0000 C   0  0  0  0  0  0  0  0  0  0  0  0
   -6.0000    2.5981    0.0000 N   0  0  0  0  0  0  0  0  0  0  0  0
   -5.2500    3.8971    0.0000 C   0  0  0  0  0  0  0  0  0  0  0  0
   -3.7500    3.8971    0.0000 N   0  0  0  0  0  0  0  0  0  0  0  0
   -3.0000    5.1962    0.0000 C   0  0  0  0  0  0  0  0  0  0  0  0
   -3.7500    6.4952    0.0000 C   0  0  0  0  0  0  0  0  0  0  0  0
   -5.2500    6.4952    0.0000 C   0  0  0  0  0  0  0  0  0  0  0  0
   -6.0000    7.7942    0.0000 C   0  0  0  0  0  0  0  0  0  0  0  0
   -6.7500    9.0933    0.0000 F   0  0  0  0  0  0  0  0  0  0  0  0
   -4.7010    8.5442    0.0000 F   0  0  0  0  0  0  0  0  0  0  0  0
   -7.2990    7.0442    0.0000 F   0  0  0  0  0  0  0  0  0  0  0  0
   -6.0000    5.1962    0.0000 N   0  0  0  0  0  0  0  0  0  0  0  0
   -6.0000    0.0000    0.0000 C   0  0  0  0  0  0  0  0  0  0  0  0
   -5.2500   -1.2990    0.0000 C   0  0  0  0  0  0  0  0  0  0  0  0
   -6.0000   -2.5981    0.0000 C   0  0  0  0  0  0  0  0  0  0  0  0
   -7.5000   -2.5981    0.0000 C   0  0  0  0  0  0  0  0  0  0  0  0
   -8.2500   -3.8971    0.0000 C   0  0  0  0  0  0  0  0  0  0  0  0
   -7.5000   -5.1962    0.0000 C   0  0  0  0  0  0  0  0  0  0  0  0
   -6.0000   -5.1962    0.0000 C   0  0  0  0  0  0  0  0  0  0  0  0
   -5.2500   -3.8971    0.0000 C   0  0  0  0  0  0  0  0  0  0  0  0
   -3.7500   -1.2990    0.0000 C   0  0  0  0  0  0  0  0  0  0  0  0
   -0.7500    1.2990    0.0000 C   0  0  0  0  0  0  0  0  0  0  0  0
    0.7500    1.2990    0.0000 C   0  0  0  0  0  0  0  0  0  0  0  0
  1  2  1  0
  2  3  2  0
  2  4  2  0
  2  5  1  0
  5  6  1  0
  6  7  1  0
  7  8  1  0
  8  9  1  0
  9 10  2  0
 10 11  1  0
 11 12  1  0
 12 13  1  0
 13 14  2  0
 14 15  1  0
 15 16  2  0
 16 17  1  0
 17 18  1  0
 18 19  1  0
 18 20  1  0
 18 21  1  0
 17 22  2  0
 11 23  2  0
 23 24  1  0
 24 25  1  0
 25 26  2  0
 26 27  1  0
 27 28  2  0
 28 29  1  0
 29 30  2  0
 24 31  2  0
  8 32  1  0
 32 33  1  0
 33  5  1  0
 31  9  1  0
 22 13  1  0
 30 25  1  0
M  END
>  <Compound_ID>  (41) 
CHEMBL3937226

>  <Molecule Name>  (41) 
nan

>  <Molecular Weight>  (41) 
477.51

>  <AlogP>  (41) 
3.99

>  <Smiles>  (41) 
CS(=O)(=O)N1CCN(c2cc(Nc3nccc(C(F)(F)F)n3)cc(-c3ccccc3)c2)CC1

>  <Standard Type>  (41) 
IC50

>  <Standard Relation>  (41) 
'='

>  <Standard Units>  (41) 
nM

>  <Standard Value>  (41) 
79.3

>  <Assay ChEMBL ID>  (41) 
CHEMBL3888530

>  <Assay Description>  (41) 
Homogeneous Time-Resolved Fluorescence (HTRF) Assay: A recombinant GST-hSYK fusion protein was used to measure potency of compounds to inhibit human Syk activity. The recombinant human GST-SYK (Carna Biosciences #08-176) (5 μM final concentration) was incubated with various concentrations of the inhibitor diluted in DMSO (0.1% final concentration) for 10 minutes at room temperature in 15 mM Tris-HCl (pH 7.5), 0.01% tween 20, 2 mM DTT in 384 well plate format. To initiate the reaction the biotinylated substrate peptide (250 nM final concentration) that contains the phosphorylation site for Syk was added with magnesium (5 mM final concentration) and ATP (25 μM final concentration). Final volume of the reaction was 10 μL. Phosphorylation of the peptide was allowed to proceed for 45' at room temperature. To quench the reaction and detect the phosphorylated product, 2 nM of a Europium-anti-phosphotyrosine antibody (Perkin Elmer #AD0161) and 70 nM SA-APC (Perkin-Elmer #CR130-100) were added together in 15 mM Tris pH 7.5, 40 mM EDTA, 0.01% tween 20. Final volume of the quenching solution was 10 μL. The resulting HTRF signal was measured after 30 minutes on an EnVision (Perkin-Elmer) reader using a time-resolved fluorescence protocol.

>  <BAO Format ID>  (41) 
BAO_0000357

>  <BAO Label>  (41) 
single protein format

>  <Assay Organism>  (41) 
Homo sapiens

>  <Target ChEMBL ID>  (41) 
CHEMBL2599

>  <Target Name>  (41) 
Tyrosine-protein kinase SYK

>  <Target Organism>  (41) 
Homo sapiens

>  <Target Type>  (41) 
SINGLE PROTEIN

>  <Document ChEMBL ID>  (41) 
CHEMBL3886750

>  <Source Description>  (41) 
BindingDB Database

>  <Document Journal>  (41) 
nan

>  <Document Year>  (41) 
2016.0

>  <Active>  (41) 
1.0

>  <bits>  (41) 
<rdkit.DataStructs.cDataStructs.ExplicitBitVect object at 0x00000193F3400820>

>  <Group>  (41) 
G2

$$$$

     RDKit          2D

 30 33  0  0  0  0  0  0  0  0999 V2000
   -3.6731   11.5581    0.0000 C   0  0  0  0  0  0  0  0  0  0  0  0
   -2.9231   10.2590    0.0000 O   0  0  0  0  0  0  0  0  0  0  0  0
   -3.6731    8.9600    0.0000 C   0  0  0  0  0  0  0  0  0  0  0  0
   -5.1731    8.9600    0.0000 C   0  0  0  0  0  0  0  0  0  0  0  0
   -5.9231    7.6610    0.0000 C   0  0  0  0  0  0  0  0  0  0  0  0
   -5.1731    6.3619    0.0000 C   0  0  0  0  0  0  0  0  0  0  0  0
   -5.6366    4.9353    0.0000 S   0  0  0  0  0  0  0  0  0  0  0  0
   -4.4231    4.0537    0.0000 C   0  0  0  0  0  0  0  0  0  0  0  0
   -4.4231    2.5537    0.0000 N   0  0  0  0  0  0  0  0  0  0  0  0
   -5.7221    1.8037    0.0000 C   0  0  0  0  0  0  0  0  0  0  0  0
   -7.0211    2.5537    0.0000 N   0  0  0  0  0  0  0  0  0  0  0  0
   -8.3202    1.8037    0.0000 C   0  0  0  0  0  0  0  0  0  0  0  0
   -9.6192    2.5537    0.0000 N   0  0  0  0  0  0  0  0  0  0  0  0
   -9.6192    4.0537    0.0000 C   0  0  0  0  0  0  0  0  0  0  0  0
   -8.3202    4.8037    0.0000 C   0  0  0  0  0  0  0  0  0  0  0  0
   -8.3202    6.3037    0.0000 C   0  0  0  0  0  0  0  0  0  0  0  0
   -9.6192    7.0537    0.0000 C   0  0  0  0  0  0  0  0  0  0  0  0
  -10.9182    6.3037    0.0000 C   0  0  0  0  0  0  0  0  0  0  0  0
  -10.9182    4.8037    0.0000 C   0  0  0  0  0  0  0  0  0  0  0  0
  -12.2173    4.0537    0.0000 N   0  0  0  0  0  0  0  0  0  0  0  0
   -8.3202    0.3037    0.0000 N   0  0  0  0  0  0  0  0  0  0  0  0
   -7.0211   -0.4463    0.0000 N   0  0  0  0  0  0  0  0  0  0  0  0
   -5.7221    0.3037    0.0000 C   0  0  0  0  0  0  0  0  0  0  0  0
   -4.4231   -0.4463    0.0000 C   0  0  0  0  0  0  0  0  0  0  0  0
   -3.1240    0.3037    0.0000 N   0  0  0  0  0  0  0  0  0  0  0  0
   -4.4231   -1.9463    0.0000 O   0  0  0  0  0  0  0  0  0  0  0  0
   -3.2095    4.9353    0.0000 C   0  0  0  0  0  0  0  0  0  0  0  0
   -1.7829    4.4718    0.0000 C   0  0  0  0  0  0  0  0  0  0  0  0
   -3.6731    6.3619    0.0000 C   0  0  0  0  0  0  0  0  0  0  0  0
   -2.9231    7.6610    0.0000 C   0  0  0  0  0  0  0  0  0  0  0  0
  1  2  1  0
  2  3  1  0
  3  4  2  0
  4  5  1  0
  5  6  2  0
  6  7  1  0
  7  8  1  0
  8  9  1  0
  9 10  1  0
 10 11  2  0
 11 12  1  0
 12 13  1  0
 14 13  1  1
 14 15  1  0
 15 16  1  0
 16 17  1  0
 17 18  1  0
 18 19  1  0
 19 20  1  1
 12 21  2  0
 21 22  1  0
 22 23  2  0
 23 24  1  0
 24 25  1  0
 24 26  2  0
  8 27  2  0
 27 28  1  0
 27 29  1  0
 29 30  2  0
 30  3  1  0
 29  6  1  0
 23 10  1  0
 19 14  1  0
M  END
>  <Compound_ID>  (42) 
CHEMBL3928419

>  <Molecule Name>  (42) 
nan

>  <Molecular Weight>  (42) 
427.53

>  <AlogP>  (42) 
2.93

>  <Smiles>  (42) 
COc1ccc2sc(Nc3nc(N[C@@H]4CCCC[C@@H]4N)nnc3C(N)=O)c(C)c2c1

>  <Standard Type>  (42) 
IC50

>  <Standard Relation>  (42) 
'='

>  <Standard Units>  (42) 
nM

>  <Standard Value>  (42) 
0.27

>  <Assay ChEMBL ID>  (42) 
CHEMBL3887308

>  <Assay Description>  (42) 
Syk Kinase Inhibition Assay: The in vitro inhibitory activity of the compound of the present invention against Syk kinase activity was assayed under the following conditions: the purified human Syk protein used in the test were purchased from Carna Biosciences, Inc. For the inhibitory activity assay on the compound, the compound of the present invention was first serially diluted with dimethyl sulfoxide (DMSO). Next, the purified human Syk protein FL-Peptide 22 (final concentration: 1 uM) (Caliper Life Sciences, Inc.), magnesium chloride (final concentration: 5 mM), ATP (final concentration: 30 uM), and each DMSO solution of the compound of the present invention (final concentration of DMSO: 5%) were added into a buffer solution for reaction (20 mM tris-HCl pH 7.5, 20 mM NaCl, 2.5 mM DTT, 0.02% Tween-20, 1% glycerol, 0.01 mM Pefabloc), and the mixture was then incubated at 25° C. for 30 minutes to perform kinase reaction. The kinase reaction was stopped by the addition thereto of EDTA.

>  <BAO Format ID>  (42) 
BAO_0000357

>  <BAO Label>  (42) 
single protein format

>  <Assay Organism>  (42) 
Homo sapiens

>  <Target ChEMBL ID>  (42) 
CHEMBL2599

>  <Target Name>  (42) 
Tyrosine-protein kinase SYK

>  <Target Organism>  (42) 
Homo sapiens

>  <Target Type>  (42) 
SINGLE PROTEIN

>  <Document ChEMBL ID>  (42) 
CHEMBL3886160

>  <Source Description>  (42) 
BindingDB Database

>  <Document Journal>  (42) 
nan

>  <Document Year>  (42) 
2015.0

>  <Active>  (42) 
1.0

>  <bits>  (42) 
<rdkit.DataStructs.cDataStructs.ExplicitBitVect object at 0x00000193F34014D0>

>  <Group>  (42) 
G2

$$$$

     RDKit          2D

 31 35  0  0  0  0  0  0  0  0999 V2000
   -5.1962   -8.1073    0.0000 C   0  0  0  0  0  0  0  0  0  0  0  0
   -3.8971   -7.3573    0.0000 N   0  0  0  0  0  0  0  0  0  0  0  0
   -3.8971   -5.8573    0.0000 C   0  0  0  0  0  0  0  0  0  0  0  0
   -2.5981   -5.1073    0.0000 C   0  0  0  0  0  0  0  0  0  0  0  0
   -1.2990   -5.8573    0.0000 N   0  0  0  0  0  0  0  0  0  0  0  0
   -0.0000   -5.1073    0.0000 C   0  0  0  0  0  0  0  0  0  0  0  0
    1.2990   -5.8573    0.0000 O   0  0  0  0  0  0  0  0  0  0  0  0
   -0.0000   -3.6073    0.0000 C   0  0  0  0  0  0  0  0  0  0  0  0
    1.2135   -2.7256    0.0000 C   0  0  0  0  0  0  0  0  0  0  0  0
    0.7500   -1.2990    0.0000 C   0  0  0  0  0  0  0  0  0  0  0  0
    1.5000    0.0000    0.0000 C   0  0  0  0  0  0  0  0  0  0  0  0
    0.7500    1.2990    0.0000 C   0  0  0  0  0  0  0  0  0  0  0  0
    1.5000    2.5981    0.0000 N   0  0  0  0  0  0  0  0  0  0  0  0
    3.0000    2.5981    0.0000 C   0  0  0  0  0  0  0  0  0  0  0  0
    3.7500    1.2990    0.0000 N   0  0  0  0  0  0  0  0  0  0  0  0
    5.2500    1.2990    0.0000 C   0  0  0  0  0  0  0  0  0  0  0  0
    6.0000    2.5981    0.0000 C   0  0  0  0  0  0  0  0  0  0  0  0
    5.2500    3.8971    0.0000 C   0  0  0  0  0  0  0  0  0  0  0  0
    6.0000    5.1962    0.0000 C   0  0  0  0  0  0  0  0  0  0  0  0
    7.5000    5.1962    0.0000 C   0  0  0  0  0  0  0  0  0  0  0  0
    8.2500    6.4952    0.0000 C   0  0  0  0  0  0  0  0  0  0  0  0
    7.5000    7.7942    0.0000 C   0  0  0  0  0  0  0  0  0  0  0  0
    6.0000    7.7942    0.0000 C   0  0  0  0  0  0  0  0  0  0  0  0
    5.2500    6.4952    0.0000 N   0  0  0  0  0  0  0  0  0  0  0  0
    3.7500    3.8971    0.0000 N   0  0  0  0  0  0  0  0  0  0  0  0
   -0.7500    1.2990    0.0000 C   0  0  0  0  0  0  0  0  0  0  0  0
   -1.5000    0.0000    0.0000 C   0  0  0  0  0  0  0  0  0  0  0  0
   -0.7500   -1.2990    0.0000 C   0  0  0  0  0  0  0  0  0  0  0  0
   -1.2135   -2.7256    0.0000 N   0  0  0  0  0  0  0  0  0  0  0  0
   -1.2990   -7.3573    0.0000 C   0  0  0  0  0  0  0  0  0  0  0  0
   -2.5981   -8.1073    0.0000 C   0  0  0  0  0  0  0  0  0  0  0  0
  1  2  1  0
  2  3  1  0
  3  4  1  0
  4  5  1  0
  5  6  1  0
  6  7  2  0
  6  8  1  0
  8  9  2  0
  9 10  1  0
 10 11  2  0
 11 12  1  0
 12 13  1  0
 13 14  1  0
 14 15  2  0
 15 16  1  0
 16 17  2  0
 17 18  1  0
 18 19  1  0
 19 20  2  0
 20 21  1  0
 21 22  2  0
 22 23  1  0
 23 24  2  0
 18 25  2  0
 12 26  2  0
 26 27  1  0
 27 28  2  0
 28 29  1  0
  5 30  1  0
 30 31  1  0
 31  2  1  0
 29  8  1  0
 28 10  1  0
 25 14  1  0
 24 19  1  0
M  END
>  <Compound_ID>  (43) 
CHEMBL3641542

>  <Molecule Name>  (43) 
nan

>  <Molecular Weight>  (43) 
413.49

>  <AlogP>  (43) 
3.15

>  <Smiles>  (43) 
CN1CCN(C(=O)c2cc3cc(Nc4nccc(-c5ccccn5)n4)ccc3[nH]2)CC1

>  <Standard Type>  (43) 
IC50

>  <Standard Relation>  (43) 
'='

>  <Standard Units>  (43) 
nM

>  <Standard Value>  (43) 
11.6

>  <Assay ChEMBL ID>  (43) 
CHEMBL3705803

>  <Assay Description>  (43) 
Kinase Glo Luminescence Kinase Assay: Recombinant human Syk (amino acids 342-635) was expressed as a fusion protein with an N-terminal GST tag, affinity-purified and deep-frozen at a concentration of approx. 50-100 uM in test buffer (25 mM HEPES pH7.5; 25 mM MgCl2; 5 mM MnCl2; 50 mM KCl; 0.2% BSA; 0.01% CHAPS; 100 uM Na3VO4; 0.5 mM DTT) and 10% glycerol at -80 C until use. The catalytic activity of the GST-Syk kinase fusion protein was determined using the Kinase Glo Luminescence Kinase test (Promega; V6712). In this homogeneous test the amount of ATP remaining after the kinase reaction is quantified by a luciferin-luciferase reaction using luminescence. The luminescence signal obtained correlates with the amount of ATP still present and thus correlates inversely with the activity of the protein kinase. The test compounds were dissolved in 100% DMSO at a concentration of 10 mM and diluted in DMSO to a concentration of 1 mM.

>  <BAO Format ID>  (43) 
BAO_0000357

>  <BAO Label>  (43) 
single protein format

>  <Assay Organism>  (43) 
Homo sapiens

>  <Target ChEMBL ID>  (43) 
CHEMBL2599

>  <Target Name>  (43) 
Tyrosine-protein kinase SYK

>  <Target Organism>  (43) 
Homo sapiens

>  <Target Type>  (43) 
SINGLE PROTEIN

>  <Document ChEMBL ID>  (43) 
CHEMBL3638486

>  <Source Description>  (43) 
BindingDB Database

>  <Document Journal>  (43) 
nan

>  <Document Year>  (43) 
2014.0

>  <Active>  (43) 
1.0

>  <bits>  (43) 
<rdkit.DataStructs.cDataStructs.ExplicitBitVect object at 0x00000193F34015B0>

>  <Group>  (43) 
G2

$$$$

     RDKit          2D

 34 37  0  0  0  0  0  0  0  0999 V2000
   -3.9150   -6.5465    0.0000 C   0  0  0  0  0  0  0  0  0  0  0  0
   -4.3786   -5.1199    0.0000 C   0  0  0  0  0  0  0  0  0  0  0  0
   -4.8421   -3.6933    0.0000 C   0  0  0  0  0  0  0  0  0  0  0  0
   -5.8051   -5.5834    0.0000 C   0  0  0  0  0  0  0  0  0  0  0  0
   -6.9199   -4.5797    0.0000 O   0  0  0  0  0  0  0  0  0  0  0  0
   -2.9520   -4.6564    0.0000 N   0  0  0  0  0  0  0  0  0  0  0  0
   -2.6401   -3.1891    0.0000 C   0  0  0  0  0  0  0  0  0  0  0  0
   -3.7548   -2.1855    0.0000 O   0  0  0  0  0  0  0  0  0  0  0  0
   -1.2135   -2.7256    0.0000 C   0  0  0  0  0  0  0  0  0  0  0  0
   -0.0000   -3.6073    0.0000 C   0  0  0  0  0  0  0  0  0  0  0  0
    1.2135   -2.7256    0.0000 N   0  0  0  0  0  0  0  0  0  0  0  0
    0.7500   -1.2990    0.0000 C   0  0  0  0  0  0  0  0  0  0  0  0
    1.5000    0.0000    0.0000 N   0  0  0  0  0  0  0  0  0  0  0  0
    0.7500    1.2990    0.0000 C   0  0  0  0  0  0  0  0  0  0  0  0
   -0.7500    1.2990    0.0000 C   0  0  0  0  0  0  0  0  0  0  0  0
   -1.5000    2.5981    0.0000 C   0  0  0  0  0  0  0  0  0  0  0  0
   -2.9918    2.7549    0.0000 N   0  0  0  0  0  0  0  0  0  0  0  0
   -3.3037    4.2221    0.0000 N   0  0  0  0  0  0  0  0  0  0  0  0
   -4.6740    4.8322    0.0000 C   0  0  0  0  0  0  0  0  0  0  0  0
   -5.8875    3.9505    0.0000 C   0  0  0  0  0  0  0  0  0  0  0  0
   -7.2578    4.5606    0.0000 C   0  0  0  0  0  0  0  0  0  0  0  0
   -8.4713    3.6789    0.0000 S   0  0  0  0  0  0  0  0  0  0  0  0
   -9.6849    2.7973    0.0000 C   0  0  0  0  0  0  0  0  0  0  0  0
   -7.5897    2.4654    0.0000 O   0  0  0  0  0  0  0  0  0  0  0  0
   -9.3530    4.8925    0.0000 O   0  0  0  0  0  0  0  0  0  0  0  0
   -2.0046    4.9721    0.0000 C   0  0  0  0  0  0  0  0  0  0  0  0
   -1.6927    6.4393    0.0000 C   0  0  0  0  0  0  0  0  0  0  0  0
   -0.2662    6.9028    0.0000 C   0  0  0  0  0  0  0  0  0  0  0  0
    0.0457    8.3701    0.0000 F   0  0  0  0  0  0  0  0  0  0  0  0
    0.8486    5.8991    0.0000 C   0  0  0  0  0  0  0  0  0  0  0  0
    0.5367    4.4319    0.0000 C   0  0  0  0  0  0  0  0  0  0  0  0
   -0.8899    3.9684    0.0000 C   0  0  0  0  0  0  0  0  0  0  0  0
   -1.5000    0.0000    0.0000 N   0  0  0  0  0  0  0  0  0  0  0  0
   -0.7500   -1.2990    0.0000 C   0  0  0  0  0  0  0  0  0  0  0  0
  1  2  1  0
  2  3  1  0
  2  4  1  0
  4  5  1  0
  2  6  1  0
  6  7  1  0
  7  8  2  0
  7  9  1  0
  9 10  2  0
 10 11  1  0
 11 12  1  0
 12 13  2  0
 13 14  1  0
 14 15  2  0
 15 16  1  0
 16 17  2  0
 17 18  1  0
 18 19  1  0
 19 20  1  0
 20 21  1  0
 21 22  1  0
 22 23  1  0
 22 24  2  0
 22 25  2  0
 18 26  1  0
 26 27  2  0
 27 28  1  0
 28 29  1  0
 28 30  2  0
 30 31  1  0
 31 32  2  0
 15 33  1  0
 33 34  2  0
 34  9  1  0
 34 12  1  0
 32 16  1  0
 32 26  1  0
M  END
>  <Compound_ID>  (44) 
CHEMBL2347992

>  <Molecule Name>  (44) 
nan

>  <Molecular Weight>  (44) 
488.55

>  <AlogP>  (44) 
2.05

>  <Smiles>  (44) 
CC(C)(CO)NC(=O)c1c[nH]c2ncc(-c3nn(CCCS(C)(=O)=O)c4cc(F)ccc34)nc12

>  <Standard Type>  (44) 
IC50

>  <Standard Relation>  (44) 
'='

>  <Standard Units>  (44) 
nM

>  <Standard Value>  (44) 
94.0

>  <Assay ChEMBL ID>  (44) 
CHEMBL2350850

>  <Assay Description>  (44) 
Inhibition of SYK in human whole blood

>  <BAO Format ID>  (44) 
BAO_0000357

>  <BAO Label>  (44) 
single protein format

>  <Assay Organism>  (44) 
Homo sapiens

>  <Target ChEMBL ID>  (44) 
CHEMBL2599

>  <Target Name>  (44) 
Tyrosine-protein kinase SYK

>  <Target Organism>  (44) 
Homo sapiens

>  <Target Type>  (44) 
SINGLE PROTEIN

>  <Document ChEMBL ID>  (44) 
CHEMBL2346624

>  <Source Description>  (44) 
Scientific Literature

>  <Document Journal>  (44) 
J Med Chem

>  <Document Year>  (44) 
2013.0

>  <Active>  (44) 
1.0

>  <bits>  (44) 
<rdkit.DataStructs.cDataStructs.ExplicitBitVect object at 0x00000193F34034C0>

>  <Group>  (44) 
G2

$$$$

     RDKit          2D

 29 33  0  0  0  0  0  0  0  0999 V2000
    3.0000    0.0000    0.0000 C   0  0  0  0  0  0  0  0  0  0  0  0
    1.5000    0.0000    0.0000 N   0  0  0  0  0  0  0  0  0  0  0  0
    0.7500   -1.2990    0.0000 C   0  0  0  0  0  0  0  0  0  0  0  0
   -0.7500   -1.2990    0.0000 C   0  0  0  0  0  0  0  0  0  0  0  0
   -1.5000    0.0000    0.0000 O   0  0  0  0  0  0  0  0  0  0  0  0
   -0.7500    1.2990    0.0000 C   0  0  0  0  0  0  0  0  0  0  0  0
   -1.5000    2.5981    0.0000 C   0  0  0  0  0  0  0  0  0  0  0  0
   -0.7500    3.8971    0.0000 C   0  0  0  0  0  0  0  0  0  0  0  0
   -1.5000    5.1962    0.0000 C   0  0  0  0  0  0  0  0  0  0  0  0
   -0.7500    6.4952    0.0000 C   0  0  0  0  0  0  0  0  0  0  0  0
   -1.5000    7.7942    0.0000 C   0  0  0  0  0  0  0  0  0  0  0  0
   -0.7500    9.0933    0.0000 N   0  0  0  0  0  0  0  0  0  0  0  0
   -1.5000   10.3923    0.0000 C   0  0  0  0  0  0  0  0  0  0  0  0
   -3.0000   10.3923    0.0000 C   0  0  0  0  0  0  0  0  0  0  0  0
   -3.7500    9.0933    0.0000 C   0  0  0  0  0  0  0  0  0  0  0  0
   -3.0000    7.7942    0.0000 C   0  0  0  0  0  0  0  0  0  0  0  0
   -3.7500    6.4952    0.0000 C   0  0  0  0  0  0  0  0  0  0  0  0
   -5.2500    6.4952    0.0000 O   0  0  0  0  0  0  0  0  0  0  0  0
   -6.0000    5.1962    0.0000 C   0  0  0  0  0  0  0  0  0  0  0  0
   -7.5000    5.1962    0.0000 C   0  0  0  0  0  0  0  0  0  0  0  0
   -8.3817    3.9826    0.0000 C   0  0  0  0  0  0  0  0  0  0  0  0
   -9.8083    4.4462    0.0000 N   0  0  0  0  0  0  0  0  0  0  0  0
   -9.8083    5.9462    0.0000 C   0  0  0  0  0  0  0  0  0  0  0  0
  -11.0218    6.8278    0.0000 O   0  0  0  0  0  0  0  0  0  0  0  0
   -8.3817    6.4097    0.0000 C   0  0  0  0  0  0  0  0  0  0  0  0
   -3.0000    5.1962    0.0000 N   0  0  0  0  0  0  0  0  0  0  0  0
    0.7500    3.8971    0.0000 C   0  0  0  0  0  0  0  0  0  0  0  0
    1.5000    2.5981    0.0000 N   0  0  0  0  0  0  0  0  0  0  0  0
    0.7500    1.2990    0.0000 C   0  0  0  0  0  0  0  0  0  0  0  0
  1  2  1  0
  2  3  1  0
  3  4  1  0
  4  5  1  0
  5  6  1  0
  6  7  2  0
  7  8  1  0
  8  9  1  0
  9 10  2  0
 10 11  1  0
 11 12  2  0
 12 13  1  0
 13 14  2  0
 14 15  1  0
 15 16  2  0
 16 17  1  0
 17 18  1  0
 18 19  1  0
 19 20  1  0
 20 21  1  0
 21 22  1  0
 22 23  1  0
 23 24  2  0
 23 25  1  0
 17 26  2  0
  8 27  2  0
 27 28  1  0
 28 29  2  0
 29  2  1  0
 29  6  1  0
 26  9  1  0
 16 11  1  0
 25 20  1  0
M  END
>  <Compound_ID>  (45) 
CHEMBL3695968

>  <Molecule Name>  (45) 
nan

>  <Molecular Weight>  (45) 
391.43

>  <AlogP>  (45) 
2.04

>  <Smiles>  (45) 
CN1CCOc2cc(-c3cc4ncccc4c(OCC4CNC(=O)C4)n3)cnc21

>  <Standard Type>  (45) 
IC50

>  <Standard Relation>  (45) 
'='

>  <Standard Units>  (45) 
nM

>  <Standard Value>  (45) 
17.2

>  <Assay ChEMBL ID>  (45) 
CHEMBL3705989

>  <Assay Description>  (45) 
Kinase Glo Luminescence Kinase Assay: Recombinant human Syk (amino acids 342-635) was expressed as a fusion protein with an N-terminal GST tag, affinity-purified and deep-frozen at a concentration of approx. 50 - 100 uM in test buffer (25 mM HEPES pH7.5; 25 mM MgCI2;5 mM MnCI2; 50 mM KCI; 0.2% BSA; 0.01 % CHAPS; 100 uM Na3V04; 0.5 mM DTT) and 10% glycerol at -80 C until use.The catalytic activity of the GST-Syk kinase fusion protein was determined using the Kinase Glo Luminescence Kinase test (Promega; V6712). In this homogeneous test the amount of ATP remaining after the kinase reaction is quantified by a luciferin-luciferase reaction using luminescence. The luminescence signal obtained correlates with the amount of ATP still present and thus correlates inversely with the activity of the protein kinase. Method:The test compounds were dissolved in 100 % DMSO at a concentration of 10 mM and diluted in DMSO to a concentration of 1 mM.

>  <BAO Format ID>  (45) 
BAO_0000357

>  <BAO Label>  (45) 
single protein format

>  <Assay Organism>  (45) 
Homo sapiens

>  <Target ChEMBL ID>  (45) 
CHEMBL2599

>  <Target Name>  (45) 
Tyrosine-protein kinase SYK

>  <Target Organism>  (45) 
Homo sapiens

>  <Target Type>  (45) 
SINGLE PROTEIN

>  <Document ChEMBL ID>  (45) 
CHEMBL3639308

>  <Source Description>  (45) 
BindingDB Database

>  <Document Journal>  (45) 
nan

>  <Document Year>  (45) 
2015.0

>  <Active>  (45) 
1.0

>  <bits>  (45) 
<rdkit.DataStructs.cDataStructs.ExplicitBitVect object at 0x00000193F34035A0>

>  <Group>  (45) 
G2

$$$$

     RDKit          2D

 36 40  0  0  0  0  0  0  0  0999 V2000
   -7.5000   -7.7942    0.0000 C   0  0  0  0  0  0  0  0  0  0  0  0
   -6.0000   -7.7942    0.0000 O   0  0  0  0  0  0  0  0  0  0  0  0
   -5.2500   -6.4952    0.0000 C   0  0  0  0  0  0  0  0  0  0  0  0
   -6.0000   -5.1962    0.0000 C   0  0  0  0  0  0  0  0  0  0  0  0
   -5.2500   -3.8971    0.0000 C   0  0  0  0  0  0  0  0  0  0  0  0
   -3.7500   -3.8971    0.0000 N   0  0  0  0  0  0  0  0  0  0  0  0
   -3.0000   -5.1962    0.0000 C   0  0  0  0  0  0  0  0  0  0  0  0
   -1.5000   -5.1962    0.0000 C   0  0  0  0  0  0  0  0  0  0  0  0
   -0.7500   -6.4952    0.0000 C   0  0  0  0  0  0  0  0  0  0  0  0
    0.7500   -6.4952    0.0000 C   0  0  0  0  0  0  0  0  0  0  0  0
    1.5000   -5.1962    0.0000 N   0  0  0  0  0  0  0  0  0  0  0  0
    0.7500   -3.8971    0.0000 C   0  0  0  0  0  0  0  0  0  0  0  0
    1.5000   -2.5981    0.0000 N   0  0  0  0  0  0  0  0  0  0  0  0
    0.7500   -1.2990    0.0000 C   0  0  0  0  0  0  0  0  0  0  0  0
    1.5000    0.0000    0.0000 C   0  0  0  0  0  0  0  0  0  0  0  0
    0.7500    1.2990    0.0000 C   0  0  0  0  0  0  0  0  0  0  0  0
   -0.7500    1.2990    0.0000 C   0  0  0  0  0  0  0  0  0  0  0  0
   -1.7537    2.4138    0.0000 N   0  0  0  0  0  0  0  0  0  0  0  0
   -3.1240    1.8037    0.0000 C   0  0  0  0  0  0  0  0  0  0  0  0
   -4.4231    2.5537    0.0000 C   0  0  0  0  0  0  0  0  0  0  0  0
   -5.7221    1.8037    0.0000 O   0  0  0  0  0  0  0  0  0  0  0  0
   -4.4231    4.0537    0.0000 N   0  0  0  0  0  0  0  0  0  0  0  0
   -5.7745    4.7045    0.0000 C   0  0  0  0  0  0  0  0  0  0  0  0
   -6.1083    6.1669    0.0000 C   0  0  0  0  0  0  0  0  0  0  0  0
   -5.1731    7.3396    0.0000 C   0  0  0  0  0  0  0  0  0  0  0  0
   -3.6731    7.3396    0.0000 N   0  0  0  0  0  0  0  0  0  0  0  0
   -3.0222    8.6911    0.0000 C   0  0  0  0  0  0  0  0  0  0  0  0
   -1.5264    8.8032    0.0000 C   0  0  0  0  0  0  0  0  0  0  0  0
   -3.8672    9.9304    0.0000 C   0  0  0  0  0  0  0  0  0  0  0  0
   -2.7378    6.1669    0.0000 C   0  0  0  0  0  0  0  0  0  0  0  0
   -3.0716    4.7045    0.0000 C   0  0  0  0  0  0  0  0  0  0  0  0
   -2.9672    0.3119    0.0000 C   0  0  0  0  0  0  0  0  0  0  0  0
   -1.5000    0.0000    0.0000 C   0  0  0  0  0  0  0  0  0  0  0  0
   -0.7500   -1.2990    0.0000 C   0  0  0  0  0  0  0  0  0  0  0  0
   -0.7500   -3.8971    0.0000 N   0  0  0  0  0  0  0  0  0  0  0  0
   -3.7500   -6.4952    0.0000 C   0  0  0  0  0  0  0  0  0  0  0  0
  1  2  1  0
  2  3  1  0
  3  4  2  0
  4  5  1  0
  5  6  2  0
  6  7  1  0
  7  8  1  0
  8  9  2  0
  9 10  1  0
 10 11  2  0
 11 12  1  0
 12 13  1  0
 13 14  1  0
 14 15  2  0
 15 16  1  0
 16 17  2  0
 17 18  1  0
 18 19  1  0
 19 20  1  0
 20 21  2  0
 20 22  1  0
 22 23  1  0
 23 24  1  0
 24 25  1  0
 25 26  1  0
 26 27  1  0
 27 28  1  0
 27 29  1  0
 26 30  1  0
 30 31  1  0
 19 32  2  0
 32 33  1  0
 33 34  2  0
 12 35  2  0
  7 36  2  0
 36  3  1  0
 35  8  1  0
 34 14  1  0
 33 17  1  0
 31 22  1  0
M  END
>  <Compound_ID>  (46) 
CHEMBL3641517

>  <Molecule Name>  (46) 
nan

>  <Molecular Weight>  (46) 
485.59

>  <AlogP>  (46) 
4.33

>  <Smiles>  (46) 
COc1ccnc(-c2ccnc(Nc3ccc4[nH]c(C(=O)N5CCCN(C(C)C)CC5)cc4c3)n2)c1

>  <Standard Type>  (46) 
IC50

>  <Standard Relation>  (46) 
'='

>  <Standard Units>  (46) 
nM

>  <Standard Value>  (46) 
24.1

>  <Assay ChEMBL ID>  (46) 
CHEMBL3705803

>  <Assay Description>  (46) 
Kinase Glo Luminescence Kinase Assay: Recombinant human Syk (amino acids 342-635) was expressed as a fusion protein with an N-terminal GST tag, affinity-purified and deep-frozen at a concentration of approx. 50-100 uM in test buffer (25 mM HEPES pH7.5; 25 mM MgCl2; 5 mM MnCl2; 50 mM KCl; 0.2% BSA; 0.01% CHAPS; 100 uM Na3VO4; 0.5 mM DTT) and 10% glycerol at -80 C until use. The catalytic activity of the GST-Syk kinase fusion protein was determined using the Kinase Glo Luminescence Kinase test (Promega; V6712). In this homogeneous test the amount of ATP remaining after the kinase reaction is quantified by a luciferin-luciferase reaction using luminescence. The luminescence signal obtained correlates with the amount of ATP still present and thus correlates inversely with the activity of the protein kinase. The test compounds were dissolved in 100% DMSO at a concentration of 10 mM and diluted in DMSO to a concentration of 1 mM.

>  <BAO Format ID>  (46) 
BAO_0000357

>  <BAO Label>  (46) 
single protein format

>  <Assay Organism>  (46) 
Homo sapiens

>  <Target ChEMBL ID>  (46) 
CHEMBL2599

>  <Target Name>  (46) 
Tyrosine-protein kinase SYK

>  <Target Organism>  (46) 
Homo sapiens

>  <Target Type>  (46) 
SINGLE PROTEIN

>  <Document ChEMBL ID>  (46) 
CHEMBL3638486

>  <Source Description>  (46) 
BindingDB Database

>  <Document Journal>  (46) 
nan

>  <Document Year>  (46) 
2014.0

>  <Active>  (46) 
1.0

>  <bits>  (46) 
<rdkit.DataStructs.cDataStructs.ExplicitBitVect object at 0x00000193F3403530>

>  <Group>  (46) 
G2

$$$$

     RDKit          2D

 34 37  0  0  0  0  0  0  0  0999 V2000
    2.6491    0.9642    0.0000 C   0  0  0  0  0  0  0  0  0  0  0  0
    1.5000    0.0000    0.0000 C   0  0  0  0  0  0  0  0  0  0  0  0
    2.6491   -0.9642    0.0000 C   0  0  0  0  0  0  0  0  0  0  0  0
    0.7500   -1.2990    0.0000 O   0  0  0  0  0  0  0  0  0  0  0  0
   -0.7500   -1.2990    0.0000 C   0  0  0  0  0  0  0  0  0  0  0  0
   -1.5000    0.0000    0.0000 C   0  0  0  0  0  0  0  0  0  0  0  0
   -3.0000    0.0000    0.0000 C   0  0  0  0  0  0  0  0  0  0  0  0
   -3.7500   -1.2990    0.0000 C   0  0  0  0  0  0  0  0  0  0  0  0
   -5.2500   -1.2990    0.0000 N   0  0  0  0  0  0  0  0  0  0  0  0
   -6.0000    0.0000    0.0000 C   0  0  0  0  0  0  0  0  0  0  0  0
   -5.2500    1.2990    0.0000 N   0  0  0  0  0  0  0  0  0  0  0  0
   -6.0000    2.5981    0.0000 C   0  0  0  0  0  0  0  0  0  0  0  0
   -7.5000    2.5981    0.0000 C   0  0  0  0  0  0  0  0  0  0  0  0
   -8.2500    1.2990    0.0000 C   0  0  0  0  0  0  0  0  0  0  0  0
   -9.7500    1.2990    0.0000 C   0  0  0  0  0  0  0  0  0  0  0  0
  -11.2500    1.2990    0.0000 F   0  0  0  0  0  0  0  0  0  0  0  0
   -9.7500    2.7990    0.0000 F   0  0  0  0  0  0  0  0  0  0  0  0
   -9.7500   -0.2010    0.0000 F   0  0  0  0  0  0  0  0  0  0  0  0
   -7.5000    0.0000    0.0000 N   0  0  0  0  0  0  0  0  0  0  0  0
   -3.0000   -2.5981    0.0000 C   0  0  0  0  0  0  0  0  0  0  0  0
   -1.5000   -2.5981    0.0000 C   0  0  0  0  0  0  0  0  0  0  0  0
   -0.7500   -3.8971    0.0000 C   0  0  0  0  0  0  0  0  0  0  0  0
    0.7418   -4.0539    0.0000 C   0  0  0  0  0  0  0  0  0  0  0  0
    1.0537   -5.5211    0.0000 N   0  0  0  0  0  0  0  0  0  0  0  0
   -0.2454   -6.2711    0.0000 C   0  0  0  0  0  0  0  0  0  0  0  0
   -0.4022   -7.7629    0.0000 C   0  0  0  0  0  0  0  0  0  0  0  0
    0.8113   -8.6446    0.0000 O   0  0  0  0  0  0  0  0  0  0  0  0
   -1.7725   -8.3730    0.0000 C   0  0  0  0  0  0  0  0  0  0  0  0
   -1.9293   -9.8648    0.0000 F   0  0  0  0  0  0  0  0  0  0  0  0
   -2.9860   -7.4913    0.0000 F   0  0  0  0  0  0  0  0  0  0  0  0
   -1.3601   -5.2674    0.0000 S   0  0  0  0  0  0  0  0  0  0  0  0
   -0.7500    1.2990    0.0000 N   0  0  0  0  0  0  0  0  0  0  0  0
    0.7500    1.2990    0.0000 C   0  0  0  0  0  0  0  0  0  0  0  0
    1.5000    2.5981    0.0000 O   0  0  0  0  0  0  0  0  0  0  0  0
  1  2  1  0
  2  3  1  0
  2  4  1  0
  4  5  1  0
  5  6  2  0
  6  7  1  0
  7  8  2  0
  8  9  1  0
  9 10  1  0
 10 11  2  0
 11 12  1  0
 12 13  2  0
 13 14  1  0
 14 15  1  0
 15 16  1  0
 15 17  1  0
 15 18  1  0
 14 19  2  0
  8 20  1  0
 20 21  2  0
 21 22  1  0
 22 23  2  0
 23 24  1  0
 24 25  2  0
 25 26  1  0
 26 27  1  0
 26 28  1  0
 28 29  1  0
 28 30  1  0
 25 31  1  0
  6 32  1  0
 32 33  1  0
 33 34  2  0
 33  2  1  0
 21  5  1  0
 31 22  1  0
 19 10  1  0
M  END
>  <Compound_ID>  (47) 
CHEMBL3685817

>  <Molecule Name>  (47) 
nan

>  <Molecular Weight>  (47) 
501.44

>  <AlogP>  (47) 
4.77

>  <Smiles>  (47) 
CC1(C)Oc2c(cc(Nc3nccc(C(F)(F)F)n3)cc2-c2cnc(C(O)C(F)F)s2)NC1=O

>  <Standard Type>  (47) 
IC50

>  <Standard Relation>  (47) 
'='

>  <Standard Units>  (47) 
nM

>  <Standard Value>  (47) 
15.0

>  <Assay ChEMBL ID>  (47) 
CHEMBL3705225

>  <Assay Description>  (47) 
Homogeneous Time-Resolved Fluorescence (HTRF) Assay : A recombinant GST-hSYK fusion protein was used to measure potency of compounds to inhibit human SYK activity. The recombinant human GST-SYK (Carna Biosciences #08-176) (5 pM final concentration) was incubated with various concentrations of the inhibitor diluted in DMSO (0.1% final concentration) for 10 minutes at room temperature in 15 mM Tris-HCl (pH 7.5), 0.01% tween 20, 2 mM DTT in 384 well plate format. To initiate the reaction the biotinylated substrate peptide (250 nM final concentration) that contains the phosphorylation site for SYK was added with magnesium (5 mM final concentration) and ATP (25 μM final concentration). Final volume of the reaction was 10 μL. Phosphorylation of the peptide was allowed to proceed for 45′ at room temperature.

>  <BAO Format ID>  (47) 
BAO_0000357

>  <BAO Label>  (47) 
single protein format

>  <Assay Organism>  (47) 
Homo sapiens

>  <Target ChEMBL ID>  (47) 
CHEMBL2599

>  <Target Name>  (47) 
Tyrosine-protein kinase SYK

>  <Target Organism>  (47) 
Homo sapiens

>  <Target Type>  (47) 
SINGLE PROTEIN

>  <Document ChEMBL ID>  (47) 
CHEMBL3639355

>  <Source Description>  (47) 
BindingDB Database

>  <Document Journal>  (47) 
nan

>  <Document Year>  (47) 
2014.0

>  <Active>  (47) 
1.0

>  <bits>  (47) 
<rdkit.DataStructs.cDataStructs.ExplicitBitVect object at 0x00000193F34005F0>

>  <Group>  (47) 
G2

$$$$

     RDKit          2D

 29 32  0  0  0  0  0  0  0  0999 V2000
   -3.9150   -6.5465    0.0000 C   0  0  0  0  0  0  0  0  0  0  0  0
   -4.3786   -5.1199    0.0000 C   0  0  0  0  0  0  0  0  0  0  0  0
   -4.8421   -3.6933    0.0000 C   0  0  0  0  0  0  0  0  0  0  0  0
   -5.8051   -5.5834    0.0000 C   0  0  0  0  0  0  0  0  0  0  0  0
   -2.9520   -4.6564    0.0000 N   0  0  0  0  0  0  0  0  0  0  0  0
   -2.6401   -3.1891    0.0000 C   0  0  0  0  0  0  0  0  0  0  0  0
   -3.7548   -2.1855    0.0000 O   0  0  0  0  0  0  0  0  0  0  0  0
   -1.2135   -2.7256    0.0000 C   0  0  0  0  0  0  0  0  0  0  0  0
   -0.0000   -3.6073    0.0000 C   0  0  0  0  0  0  0  0  0  0  0  0
    1.2135   -2.7256    0.0000 N   0  0  0  0  0  0  0  0  0  0  0  0
    0.7500   -1.2990    0.0000 C   0  0  0  0  0  0  0  0  0  0  0  0
    1.5000    0.0000    0.0000 N   0  0  0  0  0  0  0  0  0  0  0  0
    0.7500    1.2990    0.0000 C   0  0  0  0  0  0  0  0  0  0  0  0
   -0.7500    1.2990    0.0000 C   0  0  0  0  0  0  0  0  0  0  0  0
   -1.5000    2.5981    0.0000 C   0  0  0  0  0  0  0  0  0  0  0  0
   -2.9918    2.7549    0.0000 N   0  0  0  0  0  0  0  0  0  0  0  0
   -3.3037    4.2221    0.0000 N   0  0  0  0  0  0  0  0  0  0  0  0
   -2.0046    4.9721    0.0000 C   0  0  0  0  0  0  0  0  0  0  0  0
   -1.6927    6.4393    0.0000 C   0  0  0  0  0  0  0  0  0  0  0  0
   -0.2662    6.9028    0.0000 C   0  0  0  0  0  0  0  0  0  0  0  0
    0.8486    5.8991    0.0000 C   0  0  0  0  0  0  0  0  0  0  0  0
    2.2751    6.3627    0.0000 O   0  0  0  0  0  0  0  0  0  0  0  0
    3.3899    5.3590    0.0000 C   0  0  0  0  0  0  0  0  0  0  0  0
    4.8164    5.8225    0.0000 F   0  0  0  0  0  0  0  0  0  0  0  0
    3.0780    3.8917    0.0000 F   0  0  0  0  0  0  0  0  0  0  0  0
    0.5367    4.4319    0.0000 C   0  0  0  0  0  0  0  0  0  0  0  0
   -0.8899    3.9684    0.0000 C   0  0  0  0  0  0  0  0  0  0  0  0
   -1.5000    0.0000    0.0000 N   0  0  0  0  0  0  0  0  0  0  0  0
   -0.7500   -1.2990    0.0000 C   0  0  0  0  0  0  0  0  0  0  0  0
  1  2  1  0
  2  3  1  0
  2  4  1  0
  2  5  1  0
  5  6  1  0
  6  7  2  0
  6  8  1  0
  8  9  2  0
  9 10  1  0
 10 11  1  0
 11 12  2  0
 12 13  1  0
 13 14  2  0
 14 15  1  0
 15 16  2  0
 16 17  1  0
 17 18  1  0
 18 19  2  0
 19 20  1  0
 20 21  2  0
 21 22  1  0
 22 23  1  0
 23 24  1  0
 23 25  1  0
 21 26  1  0
 26 27  2  0
 14 28  1  0
 28 29  2  0
 29  8  1  0
 29 11  1  0
 27 15  1  0
 27 18  1  0
M  END
>  <Compound_ID>  (48) 
CHEMBL2347405

>  <Molecule Name>  (48) 
nan

>  <Molecular Weight>  (48) 
400.39

>  <AlogP>  (48) 
3.63

>  <Smiles>  (48) 
CC(C)(C)NC(=O)c1c[nH]c2ncc(-c3n[nH]c4ccc(OC(F)F)cc34)nc12

>  <Standard Type>  (48) 
IC50

>  <Standard Relation>  (48) 
'='

>  <Standard Units>  (48) 
nM

>  <Standard Value>  (48) 
2.0

>  <Assay ChEMBL ID>  (48) 
CHEMBL2350855

>  <Assay Description>  (48) 
Inhibition of human recombinant truncated SYK (360 to 365 amino acid residues) using N-terminally biotinylated EPEGDYEEVLE peptide as substrate assessed as inhibition of [33P]-ATP incorporation incubated for 10 mins prior to substrate addition measured after 15 mins by scintillation counting

>  <BAO Format ID>  (48) 
BAO_0000357

>  <BAO Label>  (48) 
single protein format

>  <Assay Organism>  (48) 
Homo sapiens

>  <Target ChEMBL ID>  (48) 
CHEMBL2599

>  <Target Name>  (48) 
Tyrosine-protein kinase SYK

>  <Target Organism>  (48) 
Homo sapiens

>  <Target Type>  (48) 
SINGLE PROTEIN

>  <Document ChEMBL ID>  (48) 
CHEMBL2346624

>  <Source Description>  (48) 
Scientific Literature

>  <Document Journal>  (48) 
J Med Chem

>  <Document Year>  (48) 
2013.0

>  <Active>  (48) 
1.0

>  <bits>  (48) 
<rdkit.DataStructs.cDataStructs.ExplicitBitVect object at 0x00000193F3402340>

>  <Group>  (48) 
G2

$$$$

     RDKit          2D

 36 40  0  0  0  0  0  0  0  0999 V2000
    3.0000    0.0000    0.0000 C   0  0  0  0  0  0  0  0  0  0  0  0
    1.5000    0.0000    0.0000 C   0  0  0  0  0  0  0  0  0  0  0  0
    0.7500   -1.2990    0.0000 C   0  0  0  0  0  0  0  0  0  0  0  0
   -0.7500   -1.2990    0.0000 C   0  0  0  0  0  0  0  0  0  0  0  0
   -1.5000   -2.5981    0.0000 N   0  0  0  0  0  0  0  0  0  0  0  0
   -3.0000   -2.5981    0.0000 C   0  0  0  0  0  0  0  0  0  0  0  0
   -3.7500   -1.2990    0.0000 N   0  0  0  0  0  0  0  0  0  0  0  0
   -5.2500   -1.2990    0.0000 C   0  0  0  0  0  0  0  0  0  0  0  0
   -6.0000   -2.5981    0.0000 C   0  0  0  0  0  0  0  0  0  0  0  0
   -5.2500   -3.8971    0.0000 C   0  0  0  0  0  0  0  0  0  0  0  0
   -6.0000   -5.1962    0.0000 C   0  0  0  0  0  0  0  0  0  0  0  0
   -6.7500   -6.4952    0.0000 F   0  0  0  0  0  0  0  0  0  0  0  0
   -7.2990   -4.4462    0.0000 F   0  0  0  0  0  0  0  0  0  0  0  0
   -4.7010   -5.9462    0.0000 F   0  0  0  0  0  0  0  0  0  0  0  0
   -3.7500   -3.8971    0.0000 N   0  0  0  0  0  0  0  0  0  0  0  0
   -1.5000    0.0000    0.0000 C   0  0  0  0  0  0  0  0  0  0  0  0
   -0.7500    1.2990    0.0000 C   0  0  0  0  0  0  0  0  0  0  0  0
   -1.5000    2.5981    0.0000 C   0  0  0  0  0  0  0  0  0  0  0  0
   -2.9918    2.7549    0.0000 C   0  0  0  0  0  0  0  0  0  0  0  0
   -3.3037    4.2221    0.0000 N   0  0  0  0  0  0  0  0  0  0  0  0
   -2.0046    4.9721    0.0000 C   0  0  0  0  0  0  0  0  0  0  0  0
   -1.8478    6.4639    0.0000 C   0  0  0  0  0  0  0  0  0  0  0  0
   -0.4059    6.0504    0.0000 O   0  0  0  0  0  0  0  0  0  0  0  0
   -3.3442    6.3592    0.0000 C   0  0  0  0  0  0  0  0  0  0  0  0
   -4.1830    7.6028    0.0000 C   0  0  0  0  0  0  0  0  0  0  0  0
   -3.5254    8.9510    0.0000 C   0  0  0  0  0  0  0  0  0  0  0  0
   -4.3642   10.1945    0.0000 N   0  0  0  0  0  0  0  0  0  0  0  0
   -5.8633   10.2469    0.0000 C   0  0  0  0  0  0  0  0  0  0  0  0
   -6.2767   11.6888    0.0000 C   0  0  0  0  0  0  0  0  0  0  0  0
   -5.0332   12.5276    0.0000 C   0  0  0  0  0  0  0  0  0  0  0  0
   -3.8512   11.6041    0.0000 C   0  0  0  0  0  0  0  0  0  0  0  0
   -2.4093   12.0175    0.0000 O   0  0  0  0  0  0  0  0  0  0  0  0
   -2.0291    9.0556    0.0000 C   0  0  0  0  0  0  0  0  0  0  0  0
   -1.1903    7.8121    0.0000 C   0  0  0  0  0  0  0  0  0  0  0  0
   -0.8899    3.9684    0.0000 S   0  0  0  0  0  0  0  0  0  0  0  0
    0.7500    1.2990    0.0000 C   0  0  0  0  0  0  0  0  0  0  0  0
  1  2  1  0
  2  3  2  0
  3  4  1  0
  4  5  1  0
  5  6  1  0
  6  7  2  0
  7  8  1  0
  8  9  2  0
  9 10  1  0
 10 11  1  0
 11 12  1  0
 11 13  1  0
 11 14  1  0
 10 15  2  0
  4 16  2  0
 16 17  1  0
 17 18  1  0
 18 19  2  0
 19 20  1  0
 20 21  2  0
 21 22  1  0
 22 23  1  0
 22 24  1  0
 24 25  1  0
 25 26  1  0
 26 27  1  0
 27 28  1  0
 28 29  1  0
 29 30  1  0
 30 31  1  0
 31 32  2  0
 26 33  1  0
 33 34  1  0
 21 35  1  0
 17 36  2  0
 36  2  1  0
 15  6  1  0
 35 18  1  0
 34 22  1  0
 31 27  1  0
M  END
>  <Compound_ID>  (49) 
CHEMBL3685825

>  <Molecule Name>  (49) 
nan

>  <Molecular Weight>  (49) 
517.58

>  <AlogP>  (49) 
5.42

>  <Smiles>  (49) 
Cc1cc(Nc2nccc(C(F)(F)F)n2)cc(-c2cnc(C3(O)CCC(N4CCCC4=O)CC3)s2)c1

>  <Standard Type>  (49) 
IC50

>  <Standard Relation>  (49) 
'='

>  <Standard Units>  (49) 
nM

>  <Standard Value>  (49) 
4.0

>  <Assay ChEMBL ID>  (49) 
CHEMBL3705225

>  <Assay Description>  (49) 
Homogeneous Time-Resolved Fluorescence (HTRF) Assay : A recombinant GST-hSYK fusion protein was used to measure potency of compounds to inhibit human SYK activity. The recombinant human GST-SYK (Carna Biosciences #08-176) (5 pM final concentration) was incubated with various concentrations of the inhibitor diluted in DMSO (0.1% final concentration) for 10 minutes at room temperature in 15 mM Tris-HCl (pH 7.5), 0.01% tween 20, 2 mM DTT in 384 well plate format. To initiate the reaction the biotinylated substrate peptide (250 nM final concentration) that contains the phosphorylation site for SYK was added with magnesium (5 mM final concentration) and ATP (25 μM final concentration). Final volume of the reaction was 10 μL. Phosphorylation of the peptide was allowed to proceed for 45′ at room temperature.

>  <BAO Format ID>  (49) 
BAO_0000357

>  <BAO Label>  (49) 
single protein format

>  <Assay Organism>  (49) 
Homo sapiens

>  <Target ChEMBL ID>  (49) 
CHEMBL2599

>  <Target Name>  (49) 
Tyrosine-protein kinase SYK

>  <Target Organism>  (49) 
Homo sapiens

>  <Target Type>  (49) 
SINGLE PROTEIN

>  <Document ChEMBL ID>  (49) 
CHEMBL3639355

>  <Source Description>  (49) 
BindingDB Database

>  <Document Journal>  (49) 
nan

>  <Document Year>  (49) 
2014.0

>  <Active>  (49) 
1.0

>  <bits>  (49) 
<rdkit.DataStructs.cDataStructs.ExplicitBitVect object at 0x00000193F34006D0>

>  <Group>  (49) 
G2

$$$$

     RDKit          2D

 44 52  0  0  0  0  0  0  0  0999 V2000
    6.4640   -1.9952    0.0000 C   0  0  0  0  0  0  0  0  0  0  0  0
    4.9655   -1.9279    0.0000 O   0  0  0  0  0  0  0  0  0  0  0  0
    4.1580   -3.1920    0.0000 C   0  0  0  0  0  0  0  0  0  0  0  0
    4.8489   -4.5234    0.0000 C   0  0  0  0  0  0  0  0  0  0  0  0
    6.3474   -4.5907    0.0000 N   0  0  0  0  0  0  0  0  0  0  0  0
    7.1549   -3.3266    0.0000 C   0  0  0  0  0  0  0  0  0  0  0  0
    7.0384   -5.9220    0.0000 C   0  0  0  0  0  0  0  0  0  0  0  0
    6.2309   -7.1861    0.0000 O   0  0  0  0  0  0  0  0  0  0  0  0
    8.5369   -5.9893    0.0000 C   0  0  0  0  0  0  0  0  0  0  0  0
    9.3444   -4.7252    0.0000 C   0  0  0  0  0  0  0  0  0  0  0  0
   10.8429   -4.7925    0.0000 C   0  0  0  0  0  0  0  0  0  0  0  0
   11.5338   -6.1239    0.0000 C   0  0  0  0  0  0  0  0  0  0  0  0
   10.7263   -7.3880    0.0000 C   0  0  0  0  0  0  0  0  0  0  0  0
    9.2278   -7.3207    0.0000 C   0  0  0  0  0  0  0  0  0  0  0  0
    4.0414   -5.7874    0.0000 C   0  0  0  0  0  0  0  0  0  0  0  0
    2.5382   -5.8249    0.0000 C   0  0  0  0  0  0  0  0  0  0  0  0
    3.2490   -4.5040    0.0000 O   0  0  0  0  0  0  0  0  0  0  0  0
    2.6595   -3.1247    0.0000 C   0  0  0  0  0  0  0  0  0  0  0  0
    3.6464   -1.9951    0.0000 C   0  0  0  0  0  0  0  0  0  0  0  0
    1.2135   -2.7256    0.0000 N   0  0  0  0  0  0  0  0  0  0  0  0
    0.7500   -1.2990    0.0000 C   0  0  0  0  0  0  0  0  0  0  0  0
    1.5000    0.0000    0.0000 C   0  0  0  0  0  0  0  0  0  0  0  0
    0.7500    1.2990    0.0000 C   0  0  0  0  0  0  0  0  0  0  0  0
   -0.7500    1.2990    0.0000 C   0  0  0  0  0  0  0  0  0  0  0  0
   -1.5000    0.0000    0.0000 C   0  0  0  0  0  0  0  0  0  0  0  0
   -0.7500   -1.2990    0.0000 C   0  0  0  0  0  0  0  0  0  0  0  0
   -1.2135   -2.7256    0.0000 C   0  0  0  0  0  0  0  0  0  0  0  0
   -2.5518   -3.5691    0.0000 C   0  0  0  0  0  0  0  0  0  0  0  0
   -2.6191   -5.0676    0.0000 C   0  0  0  0  0  0  0  0  0  0  0  0
   -1.3550   -5.8751    0.0000 C   0  0  0  0  0  0  0  0  0  0  0  0
   -1.0212   -7.3375    0.0000 C   0  0  0  0  0  0  0  0  0  0  0  0
   -1.8846   -8.5641    0.0000 C   0  0  0  0  0  0  0  0  0  0  0  0
   -1.2541   -9.9251    0.0000 C   0  0  0  0  0  0  0  0  0  0  0  0
    0.2399  -10.0596    0.0000 C   0  0  0  0  0  0  0  0  0  0  0  0
    1.1033   -8.8330    0.0000 C   0  0  0  0  0  0  0  0  0  0  0  0
    0.4728   -7.4720    0.0000 C   0  0  0  0  0  0  0  0  0  0  0  0
    1.0623   -6.0927    0.0000 N   0  0  0  0  0  0  0  0  0  0  0  0
   -0.0673   -5.1058    0.0000 C   0  0  0  0  0  0  0  0  0  0  0  0
   -0.0000   -3.6073    0.0000 C   0  0  0  0  0  0  0  0  0  0  0  0
   -4.0650   -5.4667    0.0000 C   0  0  0  0  0  0  0  0  0  0  0  0
   -4.5921   -6.8710    0.0000 O   0  0  0  0  0  0  0  0  0  0  0  0
   -4.8913   -4.2148    0.0000 N   0  0  0  0  0  0  0  0  0  0  0  0
   -3.9561   -3.0421    0.0000 C   0  0  0  0  0  0  0  0  0  0  0  0
   -4.3552   -1.5961    0.0000 O   0  0  0  0  0  0  0  0  0  0  0  0
  1  2  1  0
  3  2  1  6
  3  4  1  0
  4  5  1  6
  5  6  1  0
  5  7  1  0
  7  8  2  0
  7  9  1  0
  9 10  2  0
 10 11  1  0
 11 12  2  0
 12 13  1  0
 13 14  2  0
  4 15  1  0
 16 15  1  6
 16 17  1  0
 17 18  1  0
 18 19  1  1
 18 20  1  0
 20 21  1  0
 21 22  2  0
 22 23  1  0
 23 24  2  0
 24 25  1  0
 25 26  2  0
 26 27  1  0
 27 28  2  0
 28 29  1  0
 29 30  2  0
 30 31  1  0
 31 32  2  0
 32 33  1  0
 33 34  2  0
 34 35  1  0
 35 36  2  0
 36 37  1  0
 37 38  1  0
 38 39  2  0
 29 40  1  0
 40 41  2  0
 40 42  1  0
 42 43  1  0
 43 44  1  1
 18  3  1  0
 39 20  1  0
 14  9  1  0
 37 16  1  0
 26 21  1  0
 39 27  1  0
 43 28  1  0
 38 30  1  0
 36 31  1  0
M  END
>  <Compound_ID>  (50) 
CHEMBL1240703

>  <Molecule Name>  (50) 
CGP-52421

>  <Molecular Weight>  (50) 
586.65

>  <AlogP>  (50) 
5.40

>  <Smiles>  (50) 
CO[C@@H]1[C@H](N(C)C(=O)c2ccccc2)C[C@H]2O[C@]1(C)n1c3ccccc3c3c4c(c5c6ccccc6n2c5c31)C(=O)N[C@H]4O

>  <Standard Type>  (50) 
Kd

>  <Standard Relation>  (50) 
'='

>  <Standard Units>  (50) 
nM

>  <Standard Value>  (50) 
64.0

>  <Assay ChEMBL ID>  (50) 
CHEMBL1244992

>  <Assay Description>  (50) 
Binding affinity to SYK

>  <BAO Format ID>  (50) 
BAO_0000357

>  <BAO Label>  (50) 
single protein format

>  <Assay Organism>  (50) 
None

>  <Target ChEMBL ID>  (50) 
CHEMBL2599

>  <Target Name>  (50) 
Tyrosine-protein kinase SYK

>  <Target Organism>  (50) 
Homo sapiens

>  <Target Type>  (50) 
SINGLE PROTEIN

>  <Document ChEMBL ID>  (50) 
CHEMBL1240346

>  <Source Description>  (50) 
Scientific Literature

>  <Document Journal>  (50) 
Blood

>  <Document Year>  (50) 
2009.0

>  <Active>  (50) 
1.0

>  <bits>  (50) 
<rdkit.DataStructs.cDataStructs.ExplicitBitVect object at 0x00000193F3400890>

>  <Group>  (50) 
G2

$$$$

     RDKit          2D

 33 37  0  0  0  0  0  0  0  0999 V2000
   -1.2990   -7.3573    0.0000 C   0  0  0  0  0  0  0  0  0  0  0  0
   -1.2990   -5.8573    0.0000 N   0  0  0  0  0  0  0  0  0  0  0  0
   -2.5981   -5.1073    0.0000 C   0  0  0  0  0  0  0  0  0  0  0  0
   -3.8971   -5.8573    0.0000 C   0  0  0  0  0  0  0  0  0  0  0  0
   -4.0539   -7.3491    0.0000 C   0  0  0  0  0  0  0  0  0  0  0  0
   -5.5211   -7.6610    0.0000 N   0  0  0  0  0  0  0  0  0  0  0  0
   -6.2711   -6.3619    0.0000 C   0  0  0  0  0  0  0  0  0  0  0  0
   -5.2674   -5.2472    0.0000 N   0  0  0  0  0  0  0  0  0  0  0  0
   -5.5793   -3.7800    0.0000 C   0  0  0  0  0  0  0  0  0  0  0  0
   -0.0000   -5.1073    0.0000 C   0  0  0  0  0  0  0  0  0  0  0  0
    1.2990   -5.8573    0.0000 O   0  0  0  0  0  0  0  0  0  0  0  0
   -0.0000   -3.6073    0.0000 C   0  0  0  0  0  0  0  0  0  0  0  0
    1.2135   -2.7256    0.0000 C   0  0  0  0  0  0  0  0  0  0  0  0
    0.7500   -1.2990    0.0000 C   0  0  0  0  0  0  0  0  0  0  0  0
    1.5000    0.0000    0.0000 C   0  0  0  0  0  0  0  0  0  0  0  0
    0.7500    1.2990    0.0000 C   0  0  0  0  0  0  0  0  0  0  0  0
    1.5000    2.5981    0.0000 N   0  0  0  0  0  0  0  0  0  0  0  0
    3.0000    2.5981    0.0000 C   0  0  0  0  0  0  0  0  0  0  0  0
    3.7500    1.2990    0.0000 N   0  0  0  0  0  0  0  0  0  0  0  0
    5.2500    1.2990    0.0000 C   0  0  0  0  0  0  0  0  0  0  0  0
    6.0000    2.5981    0.0000 C   0  0  0  0  0  0  0  0  0  0  0  0
    5.2500    3.8971    0.0000 C   0  0  0  0  0  0  0  0  0  0  0  0
    6.0000    5.1962    0.0000 C   0  0  0  0  0  0  0  0  0  0  0  0
    7.5000    5.1962    0.0000 C   0  0  0  0  0  0  0  0  0  0  0  0
    8.2500    6.4952    0.0000 C   0  0  0  0  0  0  0  0  0  0  0  0
    7.5000    7.7942    0.0000 C   0  0  0  0  0  0  0  0  0  0  0  0
    6.0000    7.7942    0.0000 C   0  0  0  0  0  0  0  0  0  0  0  0
    5.2500    6.4952    0.0000 N   0  0  0  0  0  0  0  0  0  0  0  0
    3.7500    3.8971    0.0000 N   0  0  0  0  0  0  0  0  0  0  0  0
   -0.7500    1.2990    0.0000 C   0  0  0  0  0  0  0  0  0  0  0  0
   -1.5000    0.0000    0.0000 C   0  0  0  0  0  0  0  0  0  0  0  0
   -0.7500   -1.2990    0.0000 C   0  0  0  0  0  0  0  0  0  0  0  0
   -1.2135   -2.7256    0.0000 N   0  0  0  0  0  0  0  0  0  0  0  0
  1  2  1  0
  2  3  1  0
  3  4  1  0
  4  5  2  0
  5  6  1  0
  6  7  2  0
  7  8  1  0
  8  9  1  0
  2 10  1  0
 10 11  2  0
 10 12  1  0
 12 13  2  0
 13 14  1  0
 14 15  2  0
 15 16  1  0
 16 17  1  0
 17 18  1  0
 18 19  2  0
 19 20  1  0
 20 21  2  0
 21 22  1  0
 22 23  1  0
 23 24  2  0
 24 25  1  0
 25 26  2  0
 26 27  1  0
 27 28  2  0
 22 29  2  0
 16 30  2  0
 30 31  1  0
 31 32  2  0
 32 33  1  0
  8  4  1  0
 33 12  1  0
 32 14  1  0
 29 18  1  0
 28 23  1  0
M  END
>  <Compound_ID>  (51) 
CHEMBL3641662

>  <Molecule Name>  (51) 
nan

>  <Molecular Weight>  (51) 
438.5

>  <AlogP>  (51) 
3.77

>  <Smiles>  (51) 
CN(Cc1cncn1C)C(=O)c1cc2cc(Nc3nccc(-c4ccccn4)n3)ccc2[nH]1

>  <Standard Type>  (51) 
IC50

>  <Standard Relation>  (51) 
'='

>  <Standard Units>  (51) 
nM

>  <Standard Value>  (51) 
18.3

>  <Assay ChEMBL ID>  (51) 
CHEMBL3705803

>  <Assay Description>  (51) 
Kinase Glo Luminescence Kinase Assay: Recombinant human Syk (amino acids 342-635) was expressed as a fusion protein with an N-terminal GST tag, affinity-purified and deep-frozen at a concentration of approx. 50-100 uM in test buffer (25 mM HEPES pH7.5; 25 mM MgCl2; 5 mM MnCl2; 50 mM KCl; 0.2% BSA; 0.01% CHAPS; 100 uM Na3VO4; 0.5 mM DTT) and 10% glycerol at -80 C until use. The catalytic activity of the GST-Syk kinase fusion protein was determined using the Kinase Glo Luminescence Kinase test (Promega; V6712). In this homogeneous test the amount of ATP remaining after the kinase reaction is quantified by a luciferin-luciferase reaction using luminescence. The luminescence signal obtained correlates with the amount of ATP still present and thus correlates inversely with the activity of the protein kinase. The test compounds were dissolved in 100% DMSO at a concentration of 10 mM and diluted in DMSO to a concentration of 1 mM.

>  <BAO Format ID>  (51) 
BAO_0000357

>  <BAO Label>  (51) 
single protein format

>  <Assay Organism>  (51) 
Homo sapiens

>  <Target ChEMBL ID>  (51) 
CHEMBL2599

>  <Target Name>  (51) 
Tyrosine-protein kinase SYK

>  <Target Organism>  (51) 
Homo sapiens

>  <Target Type>  (51) 
SINGLE PROTEIN

>  <Document ChEMBL ID>  (51) 
CHEMBL3638486

>  <Source Description>  (51) 
BindingDB Database

>  <Document Journal>  (51) 
nan

>  <Document Year>  (51) 
2014.0

>  <Active>  (51) 
1.0

>  <bits>  (51) 
<rdkit.DataStructs.cDataStructs.ExplicitBitVect object at 0x00000193F3400EB0>

>  <Group>  (51) 
G2

$$$$

     RDKit          2D

 37 40  0  0  0  0  0  0  0  0999 V2000
    3.0000    0.0000    0.0000 C   0  0  0  0  0  0  0  0  0  0  0  0
    1.5000    0.0000    0.0000 C   0  0  0  0  0  0  0  0  0  0  0  0
    0.7500   -1.2990    0.0000 C   0  0  0  0  0  0  0  0  0  0  0  0
   -0.7500   -1.2990    0.0000 C   0  0  0  0  0  0  0  0  0  0  0  0
   -1.5000   -2.5981    0.0000 N   0  0  0  0  0  0  0  0  0  0  0  0
   -3.0000   -2.5981    0.0000 C   0  0  0  0  0  0  0  0  0  0  0  0
   -3.7500   -1.2990    0.0000 N   0  0  0  0  0  0  0  0  0  0  0  0
   -5.2500   -1.2990    0.0000 C   0  0  0  0  0  0  0  0  0  0  0  0
   -6.0000   -2.5981    0.0000 C   0  0  0  0  0  0  0  0  0  0  0  0
   -5.2500   -3.8971    0.0000 C   0  0  0  0  0  0  0  0  0  0  0  0
   -6.0000   -5.1962    0.0000 C   0  0  0  0  0  0  0  0  0  0  0  0
   -6.7500   -6.4952    0.0000 F   0  0  0  0  0  0  0  0  0  0  0  0
   -7.2990   -4.4462    0.0000 F   0  0  0  0  0  0  0  0  0  0  0  0
   -4.7010   -5.9462    0.0000 F   0  0  0  0  0  0  0  0  0  0  0  0
   -3.7500   -3.8971    0.0000 N   0  0  0  0  0  0  0  0  0  0  0  0
   -1.5000    0.0000    0.0000 C   0  0  0  0  0  0  0  0  0  0  0  0
   -0.7500    1.2990    0.0000 C   0  0  0  0  0  0  0  0  0  0  0  0
   -1.5000    2.5981    0.0000 C   0  0  0  0  0  0  0  0  0  0  0  0
   -2.9918    2.7549    0.0000 C   0  0  0  0  0  0  0  0  0  0  0  0
   -3.3037    4.2221    0.0000 N   0  0  0  0  0  0  0  0  0  0  0  0
   -2.0046    4.9721    0.0000 C   0  0  0  0  0  0  0  0  0  0  0  0
   -1.8478    6.4639    0.0000 C   0  0  0  0  0  0  0  0  0  0  0  0
   -0.4059    6.0504    0.0000 C   0  0  0  0  0  0  0  0  0  0  0  0
    0.6731    7.0924    0.0000 N   0  0  0  0  0  0  0  0  0  0  0  0
   -0.0430    4.5950    0.0000 O   0  0  0  0  0  0  0  0  0  0  0  0
   -3.3442    6.3592    0.0000 C   0  0  0  0  0  0  0  0  0  0  0  0
   -4.1830    7.6028    0.0000 C   0  0  0  0  0  0  0  0  0  0  0  0
   -3.5254    8.9510    0.0000 C   0  0  0  0  0  0  0  0  0  0  0  0
   -4.3642   10.1945    0.0000 N   0  0  0  0  0  0  0  0  0  0  0  0
   -3.7066   11.5427    0.0000 C   0  0  0  0  0  0  0  0  0  0  0  0
   -2.2103   11.6474    0.0000 O   0  0  0  0  0  0  0  0  0  0  0  0
   -4.5454   12.7863    0.0000 C   0  0  0  0  0  0  0  0  0  0  0  0
   -3.8879   14.1345    0.0000 O   0  0  0  0  0  0  0  0  0  0  0  0
   -2.0291    9.0556    0.0000 C   0  0  0  0  0  0  0  0  0  0  0  0
   -1.1903    7.8121    0.0000 C   0  0  0  0  0  0  0  0  0  0  0  0
   -0.8899    3.9684    0.0000 S   0  0  0  0  0  0  0  0  0  0  0  0
    0.7500    1.2990    0.0000 C   0  0  0  0  0  0  0  0  0  0  0  0
  1  2  1  0
  2  3  2  0
  3  4  1  0
  4  5  1  0
  5  6  1  0
  6  7  2  0
  7  8  1  0
  8  9  2  0
  9 10  1  0
 10 11  1  0
 11 12  1  0
 11 13  1  0
 11 14  1  0
 10 15  2  0
  4 16  2  0
 16 17  1  0
 17 18  1  0
 18 19  2  0
 19 20  1  0
 20 21  2  0
 21 22  1  0
 22 23  1  0
 23 24  1  0
 23 25  2  0
 22 26  1  0
 26 27  1  0
 27 28  1  0
 28 29  1  0
 29 30  1  0
 30 31  2  0
 30 32  1  0
 32 33  1  0
 28 34  1  0
 34 35  1  0
 21 36  1  0
 17 37  2  0
 37  2  1  0
 15  6  1  0
 36 18  1  0
 35 22  1  0
M  END
>  <Compound_ID>  (52) 
CHEMBL3685819

>  <Molecule Name>  (52) 
nan

>  <Molecular Weight>  (52) 
534.56

>  <AlogP>  (52) 
3.45

>  <Smiles>  (52) 
Cc1cc(Nc2nccc(C(F)(F)F)n2)cc(-c2cnc(C3(C(N)=O)CCC(NC(=O)CO)CC3)s2)c1

>  <Standard Type>  (52) 
IC50

>  <Standard Relation>  (52) 
'='

>  <Standard Units>  (52) 
nM

>  <Standard Value>  (52) 
2.0

>  <Assay ChEMBL ID>  (52) 
CHEMBL3705225

>  <Assay Description>  (52) 
Homogeneous Time-Resolved Fluorescence (HTRF) Assay : A recombinant GST-hSYK fusion protein was used to measure potency of compounds to inhibit human SYK activity. The recombinant human GST-SYK (Carna Biosciences #08-176) (5 pM final concentration) was incubated with various concentrations of the inhibitor diluted in DMSO (0.1% final concentration) for 10 minutes at room temperature in 15 mM Tris-HCl (pH 7.5), 0.01% tween 20, 2 mM DTT in 384 well plate format. To initiate the reaction the biotinylated substrate peptide (250 nM final concentration) that contains the phosphorylation site for SYK was added with magnesium (5 mM final concentration) and ATP (25 μM final concentration). Final volume of the reaction was 10 μL. Phosphorylation of the peptide was allowed to proceed for 45′ at room temperature.

>  <BAO Format ID>  (52) 
BAO_0000357

>  <BAO Label>  (52) 
single protein format

>  <Assay Organism>  (52) 
Homo sapiens

>  <Target ChEMBL ID>  (52) 
CHEMBL2599

>  <Target Name>  (52) 
Tyrosine-protein kinase SYK

>  <Target Organism>  (52) 
Homo sapiens

>  <Target Type>  (52) 
SINGLE PROTEIN

>  <Document ChEMBL ID>  (52) 
CHEMBL3639355

>  <Source Description>  (52) 
BindingDB Database

>  <Document Journal>  (52) 
nan

>  <Document Year>  (52) 
2014.0

>  <Active>  (52) 
1.0

>  <bits>  (52) 
<rdkit.DataStructs.cDataStructs.ExplicitBitVect object at 0x00000193F3402730>

>  <Group>  (52) 
G2

$$$$

     RDKit          2D

 38 43  0  0  0  0  0  0  0  0999 V2000
   -5.1962   -8.1073    0.0000 C   0  0  0  0  0  0  0  0  0  0  0  0
   -3.8971   -7.3573    0.0000 N   0  0  0  0  0  0  0  0  0  0  0  0
   -3.8971   -5.8573    0.0000 C   0  0  0  0  0  0  0  0  0  0  0  0
   -2.5981   -5.1073    0.0000 C   0  0  0  0  0  0  0  0  0  0  0  0
   -1.2990   -5.8573    0.0000 N   0  0  0  0  0  0  0  0  0  0  0  0
   -0.0000   -5.1073    0.0000 C   0  0  0  0  0  0  0  0  0  0  0  0
    1.2990   -5.8573    0.0000 O   0  0  0  0  0  0  0  0  0  0  0  0
   -0.0000   -3.6073    0.0000 C   0  0  0  0  0  0  0  0  0  0  0  0
    1.2135   -2.7256    0.0000 C   0  0  0  0  0  0  0  0  0  0  0  0
    0.7500   -1.2990    0.0000 C   0  0  0  0  0  0  0  0  0  0  0  0
    1.5000    0.0000    0.0000 C   0  0  0  0  0  0  0  0  0  0  0  0
    0.7500    1.2990    0.0000 C   0  0  0  0  0  0  0  0  0  0  0  0
    1.5000    2.5981    0.0000 N   0  0  0  0  0  0  0  0  0  0  0  0
    3.0000    2.5981    0.0000 C   0  0  0  0  0  0  0  0  0  0  0  0
    3.7500    1.2990    0.0000 N   0  0  0  0  0  0  0  0  0  0  0  0
    5.2500    1.2990    0.0000 C   0  0  0  0  0  0  0  0  0  0  0  0
    6.0000    2.5981    0.0000 C   0  0  0  0  0  0  0  0  0  0  0  0
    5.2500    3.8971    0.0000 C   0  0  0  0  0  0  0  0  0  0  0  0
    6.0000    5.1962    0.0000 C   0  0  0  0  0  0  0  0  0  0  0  0
    7.5000    5.1962    0.0000 C   0  0  0  0  0  0  0  0  0  0  0  0
    8.2500    6.4952    0.0000 C   0  0  0  0  0  0  0  0  0  0  0  0
    9.7500    6.4952    0.0000 O   0  0  0  0  0  0  0  0  0  0  0  0
   10.5000    5.1962    0.0000 C   0  0  0  0  0  0  0  0  0  0  0  0
   12.0000    5.1962    0.0000 C   0  0  0  0  0  0  0  0  0  0  0  0
   12.8817    6.4097    0.0000 C   0  0  0  0  0  0  0  0  0  0  0  0
   14.3083    5.9462    0.0000 C   0  0  0  0  0  0  0  0  0  0  0  0
   14.3083    4.4462    0.0000 C   0  0  0  0  0  0  0  0  0  0  0  0
   12.8817    3.9826    0.0000 O   0  0  0  0  0  0  0  0  0  0  0  0
    7.5000    7.7942    0.0000 C   0  0  0  0  0  0  0  0  0  0  0  0
    6.0000    7.7942    0.0000 C   0  0  0  0  0  0  0  0  0  0  0  0
    5.2500    6.4952    0.0000 N   0  0  0  0  0  0  0  0  0  0  0  0
    3.7500    3.8971    0.0000 N   0  0  0  0  0  0  0  0  0  0  0  0
   -0.7500    1.2990    0.0000 C   0  0  0  0  0  0  0  0  0  0  0  0
   -1.5000    0.0000    0.0000 C   0  0  0  0  0  0  0  0  0  0  0  0
   -0.7500   -1.2990    0.0000 C   0  0  0  0  0  0  0  0  0  0  0  0
   -1.2135   -2.7256    0.0000 N   0  0  0  0  0  0  0  0  0  0  0  0
   -1.2990   -7.3573    0.0000 C   0  0  0  0  0  0  0  0  0  0  0  0
   -2.5981   -8.1073    0.0000 C   0  0  0  0  0  0  0  0  0  0  0  0
  1  2  1  0
  2  3  1  0
  3  4  1  0
  4  5  1  0
  5  6  1  0
  6  7  2  0
  6  8  1  0
  8  9  2  0
  9 10  1  0
 10 11  2  0
 11 12  1  0
 12 13  1  0
 13 14  1  0
 14 15  2  0
 15 16  1  0
 16 17  2  0
 17 18  1  0
 18 19  1  0
 19 20  2  0
 20 21  1  0
 21 22  1  0
 22 23  1  0
 23 24  1  0
 24 25  1  0
 25 26  1  0
 26 27  1  0
 27 28  1  0
 21 29  2  0
 29 30  1  0
 30 31  2  0
 18 32  2  0
 12 33  2  0
 33 34  1  0
 34 35  2  0
 35 36  1  0
  5 37  1  0
 37 38  1  0
 38  2  1  0
 36  8  1  0
 35 10  1  0
 32 14  1  0
 31 19  1  0
 28 24  1  0
M  END
>  <Compound_ID>  (53) 
CHEMBL3641591

>  <Molecule Name>  (53) 
nan

>  <Molecular Weight>  (53) 
513.6

>  <AlogP>  (53) 
3.71

>  <Smiles>  (53) 
CN1CCN(C(=O)c2cc3cc(Nc4nccc(-c5cc(OCC6CCCO6)ccn5)n4)ccc3[nH]2)CC1

>  <Standard Type>  (53) 
IC50

>  <Standard Relation>  (53) 
'='

>  <Standard Units>  (53) 
nM

>  <Standard Value>  (53) 
30.2

>  <Assay ChEMBL ID>  (53) 
CHEMBL3705803

>  <Assay Description>  (53) 
Kinase Glo Luminescence Kinase Assay: Recombinant human Syk (amino acids 342-635) was expressed as a fusion protein with an N-terminal GST tag, affinity-purified and deep-frozen at a concentration of approx. 50-100 uM in test buffer (25 mM HEPES pH7.5; 25 mM MgCl2; 5 mM MnCl2; 50 mM KCl; 0.2% BSA; 0.01% CHAPS; 100 uM Na3VO4; 0.5 mM DTT) and 10% glycerol at -80 C until use. The catalytic activity of the GST-Syk kinase fusion protein was determined using the Kinase Glo Luminescence Kinase test (Promega; V6712). In this homogeneous test the amount of ATP remaining after the kinase reaction is quantified by a luciferin-luciferase reaction using luminescence. The luminescence signal obtained correlates with the amount of ATP still present and thus correlates inversely with the activity of the protein kinase. The test compounds were dissolved in 100% DMSO at a concentration of 10 mM and diluted in DMSO to a concentration of 1 mM.

>  <BAO Format ID>  (53) 
BAO_0000357

>  <BAO Label>  (53) 
single protein format

>  <Assay Organism>  (53) 
Homo sapiens

>  <Target ChEMBL ID>  (53) 
CHEMBL2599

>  <Target Name>  (53) 
Tyrosine-protein kinase SYK

>  <Target Organism>  (53) 
Homo sapiens

>  <Target Type>  (53) 
SINGLE PROTEIN

>  <Document ChEMBL ID>  (53) 
CHEMBL3638486

>  <Source Description>  (53) 
BindingDB Database

>  <Document Journal>  (53) 
nan

>  <Document Year>  (53) 
2014.0

>  <Active>  (53) 
1.0

>  <bits>  (53) 
<rdkit.DataStructs.cDataStructs.ExplicitBitVect object at 0x00000193F3400900>

>  <Group>  (53) 
G2

$$$$

     RDKit          2D

 26 28  0  0  0  0  0  0  0  0999 V2000
    3.0000    0.0000    0.0000 C   0  0  0  0  0  0  0  0  0  0  0  0
    1.5000    0.0000    0.0000 C   0  0  0  0  0  0  0  0  0  0  0  0
    0.7500   -1.2990    0.0000 C   0  0  0  0  0  0  0  0  0  0  0  0
   -0.7500   -1.2990    0.0000 C   0  0  0  0  0  0  0  0  0  0  0  0
   -1.5000   -2.5981    0.0000 C   0  0  0  0  0  0  0  0  0  0  0  0
   -1.5000    0.0000    0.0000 N   0  0  0  0  0  0  0  0  0  0  0  0
   -0.7500    1.2990    0.0000 C   0  0  0  0  0  0  0  0  0  0  0  0
   -1.5000    2.5981    0.0000 N   0  0  0  0  0  0  0  0  0  0  0  0
   -0.7500    3.8971    0.0000 C   0  0  0  0  0  0  0  0  0  0  0  0
    0.7500    3.8971    0.0000 C   0  0  0  0  0  0  0  0  0  0  0  0
    1.5000    5.1962    0.0000 C   0  0  0  0  0  0  0  0  0  0  0  0
    3.0000    5.1962    0.0000 N   0  0  0  0  0  0  0  0  0  0  0  0
    3.7500    3.8971    0.0000 C   0  0  0  0  0  0  0  0  0  0  0  0
    3.0000    2.5981    0.0000 C   0  0  0  0  0  0  0  0  0  0  0  0
    5.2500    3.8971    0.0000 C   0  0  0  0  0  0  0  0  0  0  0  0
    6.1317    2.6836    0.0000 N   0  0  0  0  0  0  0  0  0  0  0  0
    7.5583    3.1471    0.0000 C   0  0  0  0  0  0  0  0  0  0  0  0
    7.5583    4.6471    0.0000 C   0  0  0  0  0  0  0  0  0  0  0  0
    6.1317    5.1106    0.0000 N   0  0  0  0  0  0  0  0  0  0  0  0
    0.7500    6.4952    0.0000 C   0  0  0  0  0  0  0  0  0  0  0  0
   -0.7500    6.4952    0.0000 N   0  0  0  0  0  0  0  0  0  0  0  0
   -1.5000    5.1962    0.0000 C   0  0  0  0  0  0  0  0  0  0  0  0
   -3.0000    5.1962    0.0000 C   0  0  0  0  0  0  0  0  0  0  0  0
   -3.7500    6.4952    0.0000 N   0  0  0  0  0  0  0  0  0  0  0  0
   -3.7500    3.8971    0.0000 O   0  0  0  0  0  0  0  0  0  0  0  0
    0.7500    1.2990    0.0000 C   0  0  0  0  0  0  0  0  0  0  0  0
  1  2  1  0
  2  3  2  0
  3  4  1  0
  4  5  1  0
  4  6  2  0
  6  7  1  0
  7  8  1  0
  8  9  1  0
  9 10  2  0
 10 11  1  0
 11 12  1  0
 12 13  1  0
 13 14  1  0
 13 15  1  0
 15 16  2  0
 16 17  1  0
 17 18  2  0
 18 19  1  0
 11 20  2  0
 20 21  1  0
 21 22  2  0
 22 23  1  0
 23 24  1  0
 23 25  2  0
  7 26  2  0
 26  2  1  0
 22  9  1  0
 19 15  1  0
M  END
>  <Compound_ID>  (54) 
CHEMBL3415602

>  <Molecule Name>  (54) 
nan

>  <Molecular Weight>  (54) 
351.41

>  <AlogP>  (54) 
2.83

>  <Smiles>  (54) 
Cc1cc(C)nc(Nc2cc(NC(C)c3ncc[nH]3)cnc2C(N)=O)c1

>  <Standard Type>  (54) 
IC50

>  <Standard Relation>  (54) 
'='

>  <Standard Units>  (54) 
nM

>  <Standard Value>  (54) 
51.0

>  <Assay ChEMBL ID>  (54) 
CHEMBL3420413

>  <Assay Description>  (54) 
Inhibition of full-length GST-tagged human Syk preincubated for 10 mins followed by peptide substrate/ATP addition measured after 45 mins by TR-FRET assay

>  <BAO Format ID>  (54) 
BAO_0000357

>  <BAO Label>  (54) 
single protein format

>  <Assay Organism>  (54) 
Homo sapiens

>  <Target ChEMBL ID>  (54) 
CHEMBL2599

>  <Target Name>  (54) 
Tyrosine-protein kinase SYK

>  <Target Organism>  (54) 
Homo sapiens

>  <Target Type>  (54) 
SINGLE PROTEIN

>  <Document ChEMBL ID>  (54) 
CHEMBL3414497

>  <Source Description>  (54) 
Scientific Literature

>  <Document Journal>  (54) 
J Med Chem

>  <Document Year>  (54) 
2015.0

>  <Active>  (54) 
1.0

>  <bits>  (54) 
<rdkit.DataStructs.cDataStructs.ExplicitBitVect object at 0x00000193F34010E0>

>  <Group>  (54) 
G2

$$$$

     RDKit          2D

 27 30  0  0  0  0  0  0  0  0999 V2000
   -7.8533   -0.1004    0.0000 N   0  0  0  0  0  0  0  0  0  0  0  0
   -6.4268    0.3631    0.0000 C   0  0  0  0  0  0  0  0  0  0  0  0
   -5.3120   -0.6406    0.0000 O   0  0  0  0  0  0  0  0  0  0  0  0
   -6.1149    1.8303    0.0000 C   0  0  0  0  0  0  0  0  0  0  0  0
   -7.2296    2.8340    0.0000 N   0  0  0  0  0  0  0  0  0  0  0  0
   -6.9177    4.3013    0.0000 C   0  0  0  0  0  0  0  0  0  0  0  0
   -5.4912    4.7648    0.0000 C   0  0  0  0  0  0  0  0  0  0  0  0
   -5.1793    6.2320    0.0000 N   0  0  0  0  0  0  0  0  0  0  0  0
   -3.7527    6.6955    0.0000 C   0  0  0  0  0  0  0  0  0  0  0  0
   -2.6380    5.6918    0.0000 C   0  0  0  0  0  0  0  0  0  0  0  0
   -1.2114    6.1554    0.0000 C   0  0  0  0  0  0  0  0  0  0  0  0
   -0.8995    7.6226    0.0000 C   0  0  0  0  0  0  0  0  0  0  0  0
   -2.0143    8.6263    0.0000 C   0  0  0  0  0  0  0  0  0  0  0  0
   -3.4408    8.1628    0.0000 C   0  0  0  0  0  0  0  0  0  0  0  0
   -4.5556    9.1664    0.0000 N   0  0  0  0  0  0  0  0  0  0  0  0
   -4.3764    3.7611    0.0000 N   0  0  0  0  0  0  0  0  0  0  0  0
   -4.6883    2.2939    0.0000 C   0  0  0  0  0  0  0  0  0  0  0  0
   -3.5736    1.2902    0.0000 N   0  0  0  0  0  0  0  0  0  0  0  0
   -2.1470    1.7537    0.0000 C   0  0  0  0  0  0  0  0  0  0  0  0
   -1.8351    3.2209    0.0000 C   0  0  0  0  0  0  0  0  0  0  0  0
   -0.4086    3.6844    0.0000 C   0  0  0  0  0  0  0  0  0  0  0  0
    0.7062    2.6807    0.0000 C   0  0  0  0  0  0  0  0  0  0  0  0
    0.3943    1.2135    0.0000 C   0  0  0  0  0  0  0  0  0  0  0  0
    1.2760    0.0000    0.0000 C   0  0  0  0  0  0  0  0  0  0  0  0
    0.3943   -1.2135    0.0000 C   0  0  0  0  0  0  0  0  0  0  0  0
   -1.0323   -0.7500    0.0000 N   0  0  0  0  0  0  0  0  0  0  0  0
   -1.0323    0.7500    0.0000 C   0  0  0  0  0  0  0  0  0  0  0  0
  1  2  1  0
  2  3  2  0
  2  4  1  0
  4  5  2  0
  5  6  1  0
  6  7  2  0
  7  8  1  0
  9  8  1  1
  9 10  1  0
 10 11  1  0
 11 12  1  0
 12 13  1  0
 13 14  1  0
 14 15  1  1
  7 16  1  0
 16 17  2  0
 17 18  1  0
 18 19  1  0
 19 20  2  0
 20 21  1  0
 21 22  2  0
 22 23  1  0
 23 24  1  0
 24 25  2  0
 25 26  1  0
 26 27  1  0
 17  4  1  0
 27 19  1  0
 14  9  1  0
 27 23  2  0
M  END
>  <Compound_ID>  (55) 
CHEMBL3416024

>  <Molecule Name>  (55) 
nan

>  <Molecular Weight>  (55) 
365.44

>  <AlogP>  (55) 
2.48

>  <Smiles>  (55) 
NC(=O)c1ncc(N[C@@H]2CCCC[C@@H]2N)nc1Nc1cccc2cc[nH]c12

>  <Standard Type>  (55) 
IC50

>  <Standard Relation>  (55) 
'='

>  <Standard Units>  (55) 
nM

>  <Standard Value>  (55) 
5.0

>  <Assay ChEMBL ID>  (55) 
CHEMBL3418947

>  <Assay Description>  (55) 
Inhibition of Syk (unknown origin) using 5-Fluo-Ahx-GAPDYENLQELNKK-Amide as substrate after 60 mins by microfluidic mobility shift assay

>  <BAO Format ID>  (55) 
BAO_0000357

>  <BAO Label>  (55) 
single protein format

>  <Assay Organism>  (55) 
Homo sapiens

>  <Target ChEMBL ID>  (55) 
CHEMBL2599

>  <Target Name>  (55) 
Tyrosine-protein kinase SYK

>  <Target Organism>  (55) 
Homo sapiens

>  <Target Type>  (55) 
SINGLE PROTEIN

>  <Document ChEMBL ID>  (55) 
CHEMBL3414433

>  <Source Description>  (55) 
Scientific Literature

>  <Document Journal>  (55) 
J Med Chem

>  <Document Year>  (55) 
2015.0

>  <Active>  (55) 
1.0

>  <bits>  (55) 
<rdkit.DataStructs.cDataStructs.ExplicitBitVect object at 0x00000193F3401380>

>  <Group>  (55) 
G2

$$$$

     RDKit          2D

 25 29  0  0  0  0  0  0  0  0999 V2000
   -6.9177    4.3013    0.0000 C   0  0  0  0  0  0  0  0  0  0  0  0
   -5.4912    4.7648    0.0000 C   0  0  0  0  0  0  0  0  0  0  0  0
   -4.3764    3.7611    0.0000 C   0  0  0  0  0  0  0  0  0  0  0  0
   -4.6883    2.2939    0.0000 C   0  0  0  0  0  0  0  0  0  0  0  0
   -3.5736    1.2902    0.0000 N   0  0  0  0  0  0  0  0  0  0  0  0
   -2.1470    1.7537    0.0000 C   0  0  0  0  0  0  0  0  0  0  0  0
   -1.8351    3.2209    0.0000 N   0  0  0  0  0  0  0  0  0  0  0  0
   -0.4086    3.6844    0.0000 C   0  0  0  0  0  0  0  0  0  0  0  0
   -0.0967    5.1517    0.0000 C   0  0  0  0  0  0  0  0  0  0  0  0
    1.3299    5.6152    0.0000 C   0  0  0  0  0  0  0  0  0  0  0  0
    1.6418    7.0824    0.0000 C   0  0  0  0  0  0  0  0  0  0  0  0
    0.5271    8.0861    0.0000 C   0  0  0  0  0  0  0  0  0  0  0  0
    0.5271    9.5861    0.0000 C   0  0  0  0  0  0  0  0  0  0  0  0
   -0.8995   10.0496    0.0000 N   0  0  0  0  0  0  0  0  0  0  0  0
   -1.7812    8.8361    0.0000 N   0  0  0  0  0  0  0  0  0  0  0  0
   -0.8995    7.6226    0.0000 C   0  0  0  0  0  0  0  0  0  0  0  0
   -1.2114    6.1554    0.0000 C   0  0  0  0  0  0  0  0  0  0  0  0
    0.7062    2.6807    0.0000 C   0  0  0  0  0  0  0  0  0  0  0  0
    0.3943    1.2135    0.0000 N   0  0  0  0  0  0  0  0  0  0  0  0
    1.2760    0.0000    0.0000 C   0  0  0  0  0  0  0  0  0  0  0  0
    0.3943   -1.2135    0.0000 C   0  0  0  0  0  0  0  0  0  0  0  0
   -1.0323   -0.7500    0.0000 N   0  0  0  0  0  0  0  0  0  0  0  0
   -1.0323    0.7500    0.0000 C   0  0  0  0  0  0  0  0  0  0  0  0
   -6.1149    1.8303    0.0000 C   0  0  0  0  0  0  0  0  0  0  0  0
   -7.2296    2.8340    0.0000 C   0  0  0  0  0  0  0  0  0  0  0  0
  1  2  2  0
  2  3  1  0
  3  4  2  0
  4  5  1  0
  5  6  1  0
  6  7  2  0
  7  8  1  0
  8  9  1  0
  9 10  2  0
 10 11  1  0
 11 12  2  0
 12 13  1  0
 13 14  2  0
 14 15  1  0
 15 16  1  0
 16 17  2  0
  8 18  2  0
 18 19  1  0
 19 20  1  0
 20 21  2  0
 21 22  1  0
 22 23  2  0
  4 24  1  0
 24 25  2  0
 25  1  1  0
 23  6  1  0
 17  9  1  0
 23 19  1  0
 16 12  1  0
M  END
>  <Compound_ID>  (56) 
CHEMBL3265027

>  <Molecule Name>  (56) 
nan

>  <Molecular Weight>  (56) 
326.36

>  <AlogP>  (56) 
4.02

>  <Smiles>  (56) 
c1ccc(Nc2nc(-c3ccc4cn[nH]c4c3)cn3ccnc23)cc1

>  <Standard Type>  (56) 
IC50

>  <Standard Relation>  (56) 
'='

>  <Standard Units>  (56) 
nM

>  <Standard Value>  (56) 
26.8

>  <Assay ChEMBL ID>  (56) 
CHEMBL3270296

>  <Assay Description>  (56) 
Inhibition of full length Syk (unknown origin) using biotinylated peptide substrate

>  <BAO Format ID>  (56) 
BAO_0000357

>  <BAO Label>  (56) 
single protein format

>  <Assay Organism>  (56) 
Homo sapiens

>  <Target ChEMBL ID>  (56) 
CHEMBL2599

>  <Target Name>  (56) 
Tyrosine-protein kinase SYK

>  <Target Organism>  (56) 
Homo sapiens

>  <Target Type>  (56) 
SINGLE PROTEIN

>  <Document ChEMBL ID>  (56) 
CHEMBL3259702

>  <Source Description>  (56) 
Scientific Literature

>  <Document Journal>  (56) 
J Med Chem

>  <Document Year>  (56) 
2014.0

>  <Active>  (56) 
1.0

>  <bits>  (56) 
<rdkit.DataStructs.cDataStructs.ExplicitBitVect object at 0x00000193F3401EE0>

>  <Group>  (56) 
G2

$$$$

     RDKit          2D

 30 34  0  0  0  0  0  0  0  0999 V2000
    0.7233  -11.1925    0.0000 F   0  0  0  0  0  0  0  0  0  0  0  0
    0.8801   -9.7007    0.0000 C   0  0  0  0  0  0  0  0  0  0  0  0
   -0.6117   -9.5439    0.0000 F   0  0  0  0  0  0  0  0  0  0  0  0
    2.3719   -9.8575    0.0000 F   0  0  0  0  0  0  0  0  0  0  0  0
    1.0369   -8.2089    0.0000 C   0  0  0  0  0  0  0  0  0  0  0  0
   -0.1766   -7.3272    0.0000 C   0  0  0  0  0  0  0  0  0  0  0  0
   -0.0198   -5.8355    0.0000 C   0  0  0  0  0  0  0  0  0  0  0  0
    1.3505   -5.2253    0.0000 N   0  0  0  0  0  0  0  0  0  0  0  0
    2.5640   -6.1070    0.0000 C   0  0  0  0  0  0  0  0  0  0  0  0
    3.9343   -5.4969    0.0000 N   0  0  0  0  0  0  0  0  0  0  0  0
    4.0911   -4.0051    0.0000 C   0  0  0  0  0  0  0  0  0  0  0  0
    5.4615   -3.3950    0.0000 C   0  0  0  0  0  0  0  0  0  0  0  0
    5.6183   -1.9033    0.0000 C   0  0  0  0  0  0  0  0  0  0  0  0
    6.9886   -1.2931    0.0000 C   0  0  0  0  0  0  0  0  0  0  0  0
    8.2021   -2.1748    0.0000 C   0  0  0  0  0  0  0  0  0  0  0  0
    9.5724   -1.5647    0.0000 C   0  0  0  0  0  0  0  0  0  0  0  0
    9.7292   -0.0729    0.0000 C   0  0  0  0  0  0  0  0  0  0  0  0
    8.5157    0.8087    0.0000 C   0  0  0  0  0  0  0  0  0  0  0  0
    7.1454    0.1986    0.0000 C   0  0  0  0  0  0  0  0  0  0  0  0
    4.4047   -1.0216    0.0000 C   0  0  0  0  0  0  0  0  0  0  0  0
    3.0344   -1.6317    0.0000 C   0  0  0  0  0  0  0  0  0  0  0  0
    1.8209   -0.7500    0.0000 N   0  0  0  0  0  0  0  0  0  0  0  0
    1.8209    0.7500    0.0000 C   0  0  0  0  0  0  0  0  0  0  0  0
    0.3943    1.2135    0.0000 C   0  0  0  0  0  0  0  0  0  0  0  0
    1.2760    0.0000    0.0000 C   0  0  0  0  0  0  0  0  0  0  0  0
    0.3943   -1.2135    0.0000 C   0  0  0  0  0  0  0  0  0  0  0  0
   -1.0323   -0.7500    0.0000 C   0  0  0  0  0  0  0  0  0  0  0  0
   -1.0323    0.7500    0.0000 O   0  0  0  0  0  0  0  0  0  0  0  0
    2.8776   -3.1235    0.0000 C   0  0  0  0  0  0  0  0  0  0  0  0
    2.4072   -7.5988    0.0000 N   0  0  0  0  0  0  0  0  0  0  0  0
  1  2  1  0
  2  3  1  0
  2  4  1  0
  2  5  1  0
  5  6  2  0
  6  7  1  0
  7  8  2  0
  8  9  1  0
  9 10  1  0
 10 11  1  0
 11 12  2  0
 12 13  1  0
 13 14  1  0
 14 15  2  0
 15 16  1  0
 16 17  2  0
 17 18  1  0
 18 19  2  0
 13 20  2  0
 20 21  1  0
 21 22  1  0
 22 23  1  0
 23 24  1  0
 24 25  1  0
 25 26  1  0
 26 27  1  0
 27 28  1  0
 21 29  2  0
  9 30  2  0
 30  5  1  0
 29 11  1  0
 19 14  1  0
 26 22  1  0
 28 24  1  0
M  END
>  <Compound_ID>  (57) 
CHEMBL3915623

>  <Molecule Name>  (57) 
nan

>  <Molecular Weight>  (57) 
412.42

>  <AlogP>  (57) 
4.88

>  <Smiles>  (57) 
FC(F)(F)c1ccnc(Nc2cc(-c3ccccc3)cc(N3CC4CC3CO4)c2)n1

>  <Standard Type>  (57) 
IC50

>  <Standard Relation>  (57) 
'='

>  <Standard Units>  (57) 
nM

>  <Standard Value>  (57) 
67.4

>  <Assay ChEMBL ID>  (57) 
CHEMBL3888530

>  <Assay Description>  (57) 
Homogeneous Time-Resolved Fluorescence (HTRF) Assay: A recombinant GST-hSYK fusion protein was used to measure potency of compounds to inhibit human Syk activity. The recombinant human GST-SYK (Carna Biosciences #08-176) (5 μM final concentration) was incubated with various concentrations of the inhibitor diluted in DMSO (0.1% final concentration) for 10 minutes at room temperature in 15 mM Tris-HCl (pH 7.5), 0.01% tween 20, 2 mM DTT in 384 well plate format. To initiate the reaction the biotinylated substrate peptide (250 nM final concentration) that contains the phosphorylation site for Syk was added with magnesium (5 mM final concentration) and ATP (25 μM final concentration). Final volume of the reaction was 10 μL. Phosphorylation of the peptide was allowed to proceed for 45' at room temperature. To quench the reaction and detect the phosphorylated product, 2 nM of a Europium-anti-phosphotyrosine antibody (Perkin Elmer #AD0161) and 70 nM SA-APC (Perkin-Elmer #CR130-100) were added together in 15 mM Tris pH 7.5, 40 mM EDTA, 0.01% tween 20. Final volume of the quenching solution was 10 μL. The resulting HTRF signal was measured after 30 minutes on an EnVision (Perkin-Elmer) reader using a time-resolved fluorescence protocol.

>  <BAO Format ID>  (57) 
BAO_0000357

>  <BAO Label>  (57) 
single protein format

>  <Assay Organism>  (57) 
Homo sapiens

>  <Target ChEMBL ID>  (57) 
CHEMBL2599

>  <Target Name>  (57) 
Tyrosine-protein kinase SYK

>  <Target Organism>  (57) 
Homo sapiens

>  <Target Type>  (57) 
SINGLE PROTEIN

>  <Document ChEMBL ID>  (57) 
CHEMBL3886750

>  <Source Description>  (57) 
BindingDB Database

>  <Document Journal>  (57) 
nan

>  <Document Year>  (57) 
2016.0

>  <Active>  (57) 
1.0

>  <bits>  (57) 
<rdkit.DataStructs.cDataStructs.ExplicitBitVect object at 0x00000193F34026C0>

>  <Group>  (57) 
G2

$$$$

     RDKit          2D

 33 37  0  0  0  0  0  0  0  0999 V2000
    5.2841   -3.4619    0.0000 O   0  0  0  0  0  0  0  0  0  0  0  0
    4.6740   -4.8322    0.0000 C   0  0  0  0  0  0  0  0  0  0  0  0
    3.3037   -4.2221    0.0000 C   0  0  0  0  0  0  0  0  0  0  0  0
    2.0046   -4.9721    0.0000 N   0  0  0  0  0  0  0  0  0  0  0  0
    0.8899   -3.9684    0.0000 C   0  0  0  0  0  0  0  0  0  0  0  0
    1.5000   -2.5981    0.0000 C   0  0  0  0  0  0  0  0  0  0  0  0
    0.7500   -1.2990    0.0000 C   0  0  0  0  0  0  0  0  0  0  0  0
    1.5000    0.0000    0.0000 C   0  0  0  0  0  0  0  0  0  0  0  0
    0.7500    1.2990    0.0000 C   0  0  0  0  0  0  0  0  0  0  0  0
    1.5000    2.5981    0.0000 N   0  0  0  0  0  0  0  0  0  0  0  0
    3.0000    2.5981    0.0000 C   0  0  0  0  0  0  0  0  0  0  0  0
    3.7500    1.2990    0.0000 N   0  0  0  0  0  0  0  0  0  0  0  0
    5.2500    1.2990    0.0000 C   0  0  0  0  0  0  0  0  0  0  0  0
    6.0000    2.5981    0.0000 C   0  0  0  0  0  0  0  0  0  0  0  0
    5.2500    3.8971    0.0000 C   0  0  0  0  0  0  0  0  0  0  0  0
    6.0000    5.1962    0.0000 C   0  0  0  0  0  0  0  0  0  0  0  0
    6.7500    6.4952    0.0000 F   0  0  0  0  0  0  0  0  0  0  0  0
    7.2990    4.4462    0.0000 F   0  0  0  0  0  0  0  0  0  0  0  0
    4.7010    5.9462    0.0000 F   0  0  0  0  0  0  0  0  0  0  0  0
    3.7500    3.8971    0.0000 N   0  0  0  0  0  0  0  0  0  0  0  0
   -0.7500    1.2990    0.0000 C   0  0  0  0  0  0  0  0  0  0  0  0
   -1.5000    0.0000    0.0000 C   0  0  0  0  0  0  0  0  0  0  0  0
   -3.0000    0.0000    0.0000 N   0  0  0  0  0  0  0  0  0  0  0  0
   -3.7500    1.2990    0.0000 C   0  0  0  0  0  0  0  0  0  0  0  0
   -5.2500    1.2990    0.0000 C   0  0  0  0  0  0  0  0  0  0  0  0
   -6.0000    0.0000    0.0000 O   0  0  0  0  0  0  0  0  0  0  0  0
   -5.2500   -1.2990    0.0000 C   0  0  0  0  0  0  0  0  0  0  0  0
   -3.7500   -1.2990    0.0000 C   0  0  0  0  0  0  0  0  0  0  0  0
   -0.7500   -1.2990    0.0000 C   0  0  0  0  0  0  0  0  0  0  0  0
    2.9918   -2.7549    0.0000 S   0  0  0  0  0  0  0  0  0  0  0  0
    4.0639   -6.2025    0.0000 C   0  0  0  0  0  0  0  0  0  0  0  0
    5.4342   -6.8126    0.0000 C   0  0  0  0  0  0  0  0  0  0  0  0
    6.0443   -5.4423    0.0000 C   0  0  0  0  0  0  0  0  0  0  0  0
  1  2  1  0
  2  3  1  0
  3  4  2  0
  4  5  1  0
  5  6  2  0
  6  7  1  0
  7  8  2  0
  8  9  1  0
  9 10  1  0
 10 11  1  0
 11 12  2  0
 12 13  1  0
 13 14  2  0
 14 15  1  0
 15 16  1  0
 16 17  1  0
 16 18  1  0
 16 19  1  0
 15 20  2  0
  9 21  2  0
 21 22  1  0
 22 23  1  0
 23 24  1  0
 24 25  1  0
 25 26  1  0
 26 27  1  0
 27 28  1  0
 22 29  2  0
  6 30  1  0
  2 31  1  0
 31 32  1  0
 32 33  1  0
 33  2  1  0
 30  3  1  0
 29  7  1  0
 20 11  1  0
 28 23  1  0
M  END
>  <Compound_ID>  (58) 
CHEMBL3685818

>  <Molecule Name>  (58) 
nan

>  <Molecular Weight>  (58) 
477.51

>  <AlogP>  (58) 
4.57

>  <Smiles>  (58) 
OC1(c2ncc(-c3cc(Nc4nccc(C(F)(F)F)n4)cc(N4CCOCC4)c3)s2)CCC1

>  <Standard Type>  (58) 
IC50

>  <Standard Relation>  (58) 
'='

>  <Standard Units>  (58) 
nM

>  <Standard Value>  (58) 
13.0

>  <Assay ChEMBL ID>  (58) 
CHEMBL3705225

>  <Assay Description>  (58) 
Homogeneous Time-Resolved Fluorescence (HTRF) Assay : A recombinant GST-hSYK fusion protein was used to measure potency of compounds to inhibit human SYK activity. The recombinant human GST-SYK (Carna Biosciences #08-176) (5 pM final concentration) was incubated with various concentrations of the inhibitor diluted in DMSO (0.1% final concentration) for 10 minutes at room temperature in 15 mM Tris-HCl (pH 7.5), 0.01% tween 20, 2 mM DTT in 384 well plate format. To initiate the reaction the biotinylated substrate peptide (250 nM final concentration) that contains the phosphorylation site for SYK was added with magnesium (5 mM final concentration) and ATP (25 μM final concentration). Final volume of the reaction was 10 μL. Phosphorylation of the peptide was allowed to proceed for 45′ at room temperature.

>  <BAO Format ID>  (58) 
BAO_0000357

>  <BAO Label>  (58) 
single protein format

>  <Assay Organism>  (58) 
Homo sapiens

>  <Target ChEMBL ID>  (58) 
CHEMBL2599

>  <Target Name>  (58) 
Tyrosine-protein kinase SYK

>  <Target Organism>  (58) 
Homo sapiens

>  <Target Type>  (58) 
SINGLE PROTEIN

>  <Document ChEMBL ID>  (58) 
CHEMBL3639355

>  <Source Description>  (58) 
BindingDB Database

>  <Document Journal>  (58) 
nan

>  <Document Year>  (58) 
2014.0

>  <Active>  (58) 
1.0

>  <bits>  (58) 
<rdkit.DataStructs.cDataStructs.ExplicitBitVect object at 0x00000193F3402F80>

>  <Group>  (58) 
G2

$$$$

     RDKit          2D

 27 29  0  0  0  0  0  0  0  0999 V2000
    3.7500   -1.2990    0.0000 N   0  0  0  0  0  0  0  0  0  0  0  0
    3.0000    0.0000    0.0000 C   0  0  0  0  0  0  0  0  0  0  0  0
    3.7500    1.2990    0.0000 O   0  0  0  0  0  0  0  0  0  0  0  0
    1.5000    0.0000    0.0000 C   0  0  0  0  0  0  0  0  0  0  0  0
    0.7500   -1.2990    0.0000 C   0  0  0  0  0  0  0  0  0  0  0  0
   -0.7500   -1.2990    0.0000 N   0  0  0  0  0  0  0  0  0  0  0  0
   -1.5000    0.0000    0.0000 C   0  0  0  0  0  0  0  0  0  0  0  0
   -3.0000    0.0000    0.0000 N   0  0  0  0  0  0  0  0  0  0  0  0
   -3.7500    1.2990    0.0000 C   0  0  0  0  0  0  0  0  0  0  0  0
   -5.2500    1.2990    0.0000 C   0  0  0  0  0  0  0  0  0  0  0  0
   -6.0000    0.0000    0.0000 C   0  0  0  0  0  0  0  0  0  0  0  0
   -5.2500   -1.2990    0.0000 C   0  0  0  0  0  0  0  0  0  0  0  0
   -6.0000   -2.5981    0.0000 N   0  0  0  0  0  0  0  0  0  0  0  0
   -3.7500   -1.2990    0.0000 C   0  0  0  0  0  0  0  0  0  0  0  0
   -0.7500    1.2990    0.0000 N   0  0  0  0  0  0  0  0  0  0  0  0
    0.7500    1.2990    0.0000 C   0  0  0  0  0  0  0  0  0  0  0  0
    1.5000    2.5981    0.0000 N   0  0  0  0  0  0  0  0  0  0  0  0
    0.7500    3.8971    0.0000 C   0  0  0  0  0  0  0  0  0  0  0  0
    1.5000    5.1962    0.0000 C   0  0  0  0  0  0  0  0  0  0  0  0
    0.7500    6.4952    0.0000 C   0  0  0  0  0  0  0  0  0  0  0  0
   -0.7500    6.4952    0.0000 C   0  0  0  0  0  0  0  0  0  0  0  0
   -1.5000    5.1962    0.0000 C   0  0  0  0  0  0  0  0  0  0  0  0
   -3.0000    5.1962    0.0000 C   0  0  0  0  0  0  0  0  0  0  0  0
   -4.5000    5.1962    0.0000 F   0  0  0  0  0  0  0  0  0  0  0  0
   -3.0000    6.6962    0.0000 F   0  0  0  0  0  0  0  0  0  0  0  0
   -3.0000    3.6962    0.0000 F   0  0  0  0  0  0  0  0  0  0  0  0
   -0.7500    3.8971    0.0000 C   0  0  0  0  0  0  0  0  0  0  0  0
  1  2  1  0
  2  3  2  0
  2  4  1  0
  4  5  2  0
  5  6  1  0
  6  7  2  0
  7  8  1  0
  8  9  1  0
  9 10  1  0
 10 11  1  0
 11 12  1  0
 12 13  1  1
 12 14  1  0
  7 15  1  0
 15 16  2  0
 16 17  1  0
 17 18  1  0
 18 19  2  0
 19 20  1  0
 20 21  2  0
 21 22  1  0
 22 23  1  0
 23 24  1  0
 23 25  1  0
 23 26  1  0
 22 27  2  0
 16  4  1  0
 27 18  1  0
 14  8  1  0
M  END
>  <Compound_ID>  (59) 
CHEMBL1835063

>  <Molecule Name>  (59) 
nan

>  <Molecular Weight>  (59) 
380.37

>  <AlogP>  (59) 
2.27

>  <Smiles>  (59) 
NC(=O)c1cnc(N2CCC[C@H](N)C2)nc1Nc1cccc(C(F)(F)F)c1

>  <Standard Type>  (59) 
IC50

>  <Standard Relation>  (59) 
'='

>  <Standard Units>  (59) 
nM

>  <Standard Value>  (59) 
87.0

>  <Assay ChEMBL ID>  (59) 
CHEMBL4629885

>  <Assay Description>  (59) 
Inhibition of human SYK using poly[Glu:Tyr] (4:1) as substrate in presence of [gamma-33P]-ATP by hotspot kinase assay

>  <BAO Format ID>  (59) 
BAO_0000357

>  <BAO Label>  (59) 
single protein format

>  <Assay Organism>  (59) 
Homo sapiens

>  <Target ChEMBL ID>  (59) 
CHEMBL2599

>  <Target Name>  (59) 
Tyrosine-protein kinase SYK

>  <Target Organism>  (59) 
Homo sapiens

>  <Target Type>  (59) 
SINGLE PROTEIN

>  <Document ChEMBL ID>  (59) 
CHEMBL4627396

>  <Source Description>  (59) 
Scientific Literature

>  <Document Journal>  (59) 
J Med Chem

>  <Document Year>  (59) 
2020.0

>  <Active>  (59) 
1.0

>  <bits>  (59) 
<rdkit.DataStructs.cDataStructs.ExplicitBitVect object at 0x00000193F34030D0>

>  <Group>  (59) 
G2

$$$$

     RDKit          2D

 31 35  0  0  0  0  0  0  0  0999 V2000
    4.6740  -10.0283    0.0000 C   0  0  0  0  0  0  0  0  0  0  0  0
    3.3037   -9.4182    0.0000 C   0  0  0  0  0  0  0  0  0  0  0  0
    2.9918   -7.9510    0.0000 C   0  0  0  0  0  0  0  0  0  0  0  0
    1.5000   -7.7942    0.0000 N   0  0  0  0  0  0  0  0  0  0  0  0
    0.7500   -6.4952    0.0000 C   0  0  0  0  0  0  0  0  0  0  0  0
    1.5000   -5.1962    0.0000 N   0  0  0  0  0  0  0  0  0  0  0  0
    0.7500   -3.8971    0.0000 C   0  0  0  0  0  0  0  0  0  0  0  0
    1.5000   -2.5981    0.0000 N   0  0  0  0  0  0  0  0  0  0  0  0
    0.7500   -1.2990    0.0000 C   0  0  0  0  0  0  0  0  0  0  0  0
    1.5000    0.0000    0.0000 C   0  0  0  0  0  0  0  0  0  0  0  0
    0.7500    1.2990    0.0000 C   0  0  0  0  0  0  0  0  0  0  0  0
   -0.7500    1.2990    0.0000 C   0  0  0  0  0  0  0  0  0  0  0  0
   -1.5000    0.0000    0.0000 C   0  0  0  0  0  0  0  0  0  0  0  0
   -0.7500   -1.2990    0.0000 C   0  0  0  0  0  0  0  0  0  0  0  0
   -2.9672    0.3119    0.0000 C   0  0  0  0  0  0  0  0  0  0  0  0
   -4.0819   -0.6918    0.0000 Cl  0  0  0  0  0  0  0  0  0  0  0  0
   -3.1240    1.8037    0.0000 N   0  0  0  0  0  0  0  0  0  0  0  0
   -1.7537    2.4138    0.0000 N   0  0  0  0  0  0  0  0  0  0  0  0
   -1.4418    3.8810    0.0000 C   0  0  0  0  0  0  0  0  0  0  0  0
   -0.7500   -3.8971    0.0000 N   0  0  0  0  0  0  0  0  0  0  0  0
   -1.5000   -5.1962    0.0000 C   0  0  0  0  0  0  0  0  0  0  0  0
   -0.7500   -6.4952    0.0000 C   0  0  0  0  0  0  0  0  0  0  0  0
   -1.5000   -7.7942    0.0000 F   0  0  0  0  0  0  0  0  0  0  0  0
    0.8899   -9.1645    0.0000 C   0  0  0  0  0  0  0  0  0  0  0  0
    2.0046  -10.1682    0.0000 C   0  0  0  0  0  0  0  0  0  0  0  0
    1.8478  -11.6600    0.0000 C   0  0  0  0  0  0  0  0  0  0  0  0
    0.4775  -12.2701    0.0000 N   0  0  0  0  0  0  0  0  0  0  0  0
   -0.9229  -11.7326    0.0000 C   0  0  0  0  0  0  0  0  0  0  0  0
   -1.4604  -13.1329    0.0000 C   0  0  0  0  0  0  0  0  0  0  0  0
   -2.8307  -13.7431    0.0000 O   0  0  0  0  0  0  0  0  0  0  0  0
   -0.0601  -13.6705    0.0000 C   0  0  0  0  0  0  0  0  0  0  0  0
  1  2  1  0
  2  3  2  0
  3  4  1  0
  4  5  1  0
  5  6  2  0
  6  7  1  0
  7  8  1  0
  8  9  1  0
  9 10  2  0
 10 11  1  0
 11 12  2  0
 12 13  1  0
 13 14  2  0
 13 15  1  0
 15 16  1  0
 15 17  2  0
 17 18  1  0
 18 19  1  0
  7 20  2  0
 20 21  1  0
 21 22  2  0
 22 23  1  0
  4 24  1  0
 24 25  2  0
 25 26  1  0
 26 27  1  0
 27 28  1  0
 28 29  1  0
 29 30  1  0
 29 31  1  0
 25  2  1  0
 31 27  1  0
 22  5  1  0
 14  9  1  0
 18 12  1  0
M  END
>  <Compound_ID>  (60) 
CHEMBL3657549

>  <Molecule Name>  (60) 
nan

>  <Molecular Weight>  (60) 
441.9

>  <AlogP>  (60) 
3.18

>  <Smiles>  (60) 
Cc1cn(-c2nc(Nc3ccc4c(c3)c(Cl)nn4C)ncc2F)cc1CN1CC(O)C1

>  <Standard Type>  (60) 
IC50

>  <Standard Relation>  (60) 
'='

>  <Standard Units>  (60) 
nM

>  <Standard Value>  (60) 
1.5

>  <Assay ChEMBL ID>  (60) 
CHEMBL3705866

>  <Assay Description>  (60) 
Kinase Inhibition Assay: Compounds of the invention were initially diluted to 10 mM in 100% DMSO (CALBIOCHEM) for storage and made into kinase buffer solution to create a compound concentration ranging from 1 uM and 10 uM. Serial dilutions of compounds of the invention were dispensed into a 96-well plate (GREINER BIOSCIENCES) at 6 uL each. Purified full-length human SYK, and KDR (CARNA BIOSCIENCES) were diluted in kinase buffer and added to the compound solutions and pre-incubated for 30 minutes at room temperature. Next, ATP (TEKNOVA) of Km (15 uM) and substrate solution (suggested manufacture substrates of PerkinElmer, for example, Ulight-TK peptide for SYK and Ulight-JAK1 for KDR (PERKINELMER)) was added (12 uL each) to the wells containing the compound solution and enzyme. The reaction mixture was incubated for 1 hour. Following the incubation, the stop solution made with EDTA, water, and Lance detection buffer (PERKINELMER) was added (12 uL each) to stop phosphorylation.

>  <BAO Format ID>  (60) 
BAO_0000357

>  <BAO Label>  (60) 
single protein format

>  <Assay Organism>  (60) 
Homo sapiens

>  <Target ChEMBL ID>  (60) 
CHEMBL2599

>  <Target Name>  (60) 
Tyrosine-protein kinase SYK

>  <Target Organism>  (60) 
Homo sapiens

>  <Target Type>  (60) 
SINGLE PROTEIN

>  <Document ChEMBL ID>  (60) 
CHEMBL3638941

>  <Source Description>  (60) 
BindingDB Database

>  <Document Journal>  (60) 
nan

>  <Document Year>  (60) 
2014.0

>  <Active>  (60) 
1.0

>  <bits>  (60) 
<rdkit.DataStructs.cDataStructs.ExplicitBitVect object at 0x00000193F3403ED0>

>  <Group>  (60) 
G2

$$$$

     RDKit          2D

 26 28  0  0  0  0  0  0  0  0999 V2000
    3.0000    0.0000    0.0000 C   0  0  0  0  0  0  0  0  0  0  0  0
    1.5000    0.0000    0.0000 C   0  0  0  0  0  0  0  0  0  0  0  0
    0.7500   -1.2990    0.0000 C   0  0  0  0  0  0  0  0  0  0  0  0
   -0.7500   -1.2990    0.0000 C   0  0  0  0  0  0  0  0  0  0  0  0
   -1.5000   -2.5981    0.0000 C   0  0  0  0  0  0  0  0  0  0  0  0
   -1.5000    0.0000    0.0000 N   0  0  0  0  0  0  0  0  0  0  0  0
   -0.7500    1.2990    0.0000 C   0  0  0  0  0  0  0  0  0  0  0  0
   -1.5000    2.5981    0.0000 N   0  0  0  0  0  0  0  0  0  0  0  0
   -0.7500    3.8971    0.0000 C   0  0  0  0  0  0  0  0  0  0  0  0
    0.7500    3.8971    0.0000 C   0  0  0  0  0  0  0  0  0  0  0  0
    1.5000    5.1962    0.0000 C   0  0  0  0  0  0  0  0  0  0  0  0
    3.0000    5.1962    0.0000 N   0  0  0  0  0  0  0  0  0  0  0  0
    3.7500    3.8971    0.0000 C   0  0  0  0  0  0  0  0  0  0  0  0
    3.0000    2.5981    0.0000 C   0  0  0  0  0  0  0  0  0  0  0  0
    3.7500    1.2990    0.0000 C   0  0  0  0  0  0  0  0  0  0  0  0
    5.2500    1.2990    0.0000 C   0  0  0  0  0  0  0  0  0  0  0  0
    6.0000    2.5981    0.0000 C   0  0  0  0  0  0  0  0  0  0  0  0
    5.2500    3.8971    0.0000 C   0  0  0  0  0  0  0  0  0  0  0  0
    6.0000    5.1962    0.0000 N   0  0  0  0  0  0  0  0  0  0  0  0
    0.7500    6.4952    0.0000 C   0  0  0  0  0  0  0  0  0  0  0  0
   -0.7500    6.4952    0.0000 N   0  0  0  0  0  0  0  0  0  0  0  0
   -1.5000    5.1962    0.0000 C   0  0  0  0  0  0  0  0  0  0  0  0
   -3.0000    5.1962    0.0000 C   0  0  0  0  0  0  0  0  0  0  0  0
   -3.7500    6.4952    0.0000 N   0  0  0  0  0  0  0  0  0  0  0  0
   -3.7500    3.8971    0.0000 O   0  0  0  0  0  0  0  0  0  0  0  0
    0.7500    1.2990    0.0000 C   0  0  0  0  0  0  0  0  0  0  0  0
  1  2  1  0
  2  3  2  0
  3  4  1  0
  4  5  1  0
  4  6  2  0
  6  7  1  0
  7  8  1  0
  8  9  1  0
  9 10  2  0
 10 11  1  0
 11 12  1  0
 13 12  1  1
 13 14  1  0
 14 15  1  0
 15 16  1  0
 16 17  1  0
 17 18  1  0
 18 19  1  1
 11 20  2  0
 20 21  1  0
 21 22  2  0
 22 23  1  0
 23 24  1  0
 23 25  2  0
  7 26  2  0
 26  2  1  0
 22  9  1  0
 18 13  1  0
M  END
>  <Compound_ID>  (61) 
CHEMBL3415583

>  <Molecule Name>  (61) 
nan

>  <Molecular Weight>  (61) 
354.46

>  <AlogP>  (61) 
2.62

>  <Smiles>  (61) 
Cc1cc(C)nc(Nc2cc(N[C@@H]3CCCC[C@@H]3N)cnc2C(N)=O)c1

>  <Standard Type>  (61) 
IC50

>  <Standard Relation>  (61) 
'='

>  <Standard Units>  (61) 
nM

>  <Standard Value>  (61) 
58.0

>  <Assay ChEMBL ID>  (61) 
CHEMBL3420414

>  <Assay Description>  (61) 
Inhibition of Syk in anti-IgE-activated human basophils assessed as CysLT release in whole blood preincubated with IL-3 primed blood for 30 mins

>  <BAO Format ID>  (61) 
BAO_0000357

>  <BAO Label>  (61) 
single protein format

>  <Assay Organism>  (61) 
Homo sapiens

>  <Target ChEMBL ID>  (61) 
CHEMBL2599

>  <Target Name>  (61) 
Tyrosine-protein kinase SYK

>  <Target Organism>  (61) 
Homo sapiens

>  <Target Type>  (61) 
SINGLE PROTEIN

>  <Document ChEMBL ID>  (61) 
CHEMBL3414497

>  <Source Description>  (61) 
Scientific Literature

>  <Document Journal>  (61) 
J Med Chem

>  <Document Year>  (61) 
2015.0

>  <Active>  (61) 
1.0

>  <bits>  (61) 
<rdkit.DataStructs.cDataStructs.ExplicitBitVect object at 0x00000193F3400DD0>

>  <Group>  (61) 
G2

$$$$

     RDKit          2D

 31 34  0  0  0  0  0  0  0  0999 V2000
    3.0000    0.0000    0.0000 C   0  0  0  0  0  0  0  0  0  0  0  0
    1.5000    0.0000    0.0000 C   0  0  0  0  0  0  0  0  0  0  0  0
    0.7500   -1.2990    0.0000 C   0  0  0  0  0  0  0  0  0  0  0  0
   -0.7500   -1.2990    0.0000 C   0  0  0  0  0  0  0  0  0  0  0  0
   -1.5000   -2.5981    0.0000 N   0  0  0  0  0  0  0  0  0  0  0  0
   -3.0000   -2.5981    0.0000 C   0  0  0  0  0  0  0  0  0  0  0  0
   -3.7500   -1.2990    0.0000 C   0  0  0  0  0  0  0  0  0  0  0  0
   -5.2500   -1.2990    0.0000 C   0  0  0  0  0  0  0  0  0  0  0  0
   -6.0000    0.0000    0.0000 C   0  0  0  0  0  0  0  0  0  0  0  0
   -6.7500    1.2990    0.0000 F   0  0  0  0  0  0  0  0  0  0  0  0
   -4.7010    0.7500    0.0000 F   0  0  0  0  0  0  0  0  0  0  0  0
   -7.2990   -0.7500    0.0000 F   0  0  0  0  0  0  0  0  0  0  0  0
   -6.0000   -2.5981    0.0000 C   0  0  0  0  0  0  0  0  0  0  0  0
   -5.2500   -3.8971    0.0000 C   0  0  0  0  0  0  0  0  0  0  0  0
   -3.7500   -3.8971    0.0000 N   0  0  0  0  0  0  0  0  0  0  0  0
   -1.5000    0.0000    0.0000 N   0  0  0  0  0  0  0  0  0  0  0  0
   -0.7500    1.2990    0.0000 C   0  0  0  0  0  0  0  0  0  0  0  0
   -1.5000    2.5981    0.0000 C   0  0  0  0  0  0  0  0  0  0  0  0
   -0.7500    3.8971    0.0000 C   0  0  0  0  0  0  0  0  0  0  0  0
   -1.5000    5.1962    0.0000 C   0  0  0  0  0  0  0  0  0  0  0  0
   -3.0000    5.1962    0.0000 C   0  0  0  0  0  0  0  0  0  0  0  0
   -3.7500    6.4952    0.0000 N   0  0  0  0  0  0  0  0  0  0  0  0
   -3.0000    7.7942    0.0000 C   0  0  0  0  0  0  0  0  0  0  0  0
   -3.7500    9.0933    0.0000 C   0  0  0  0  0  0  0  0  0  0  0  0
   -5.2500    9.0933    0.0000 C   0  0  0  0  0  0  0  0  0  0  0  0
   -6.0000    7.7942    0.0000 C   0  0  0  0  0  0  0  0  0  0  0  0
   -7.5000    7.7942    0.0000 N   0  0  0  0  0  0  0  0  0  0  0  0
   -5.2500    6.4952    0.0000 C   0  0  0  0  0  0  0  0  0  0  0  0
   -3.7500    3.8971    0.0000 N   0  0  0  0  0  0  0  0  0  0  0  0
   -3.0000    2.5981    0.0000 C   0  0  0  0  0  0  0  0  0  0  0  0
    0.7500    1.2990    0.0000 C   0  0  0  0  0  0  0  0  0  0  0  0
  1  2  1  0
  2  3  2  0
  3  4  1  0
  4  5  1  0
  5  6  1  0
  6  7  2  0
  7  8  1  0
  8  9  1  0
  9 10  1  0
  9 11  1  0
  9 12  1  0
  8 13  2  0
 13 14  1  0
 14 15  2  0
  4 16  2  0
 16 17  1  0
 17 18  1  0
 18 19  2  0
 19 20  1  0
 20 21  2  0
 21 22  1  0
 22 23  1  0
 23 24  1  0
 24 25  1  0
 25 26  1  0
 26 27  1  0
 26 28  1  0
 21 29  1  0
 29 30  2  0
 17 31  2  0
 31  2  1  0
 15  6  1  0
 30 18  1  0
 28 22  1  0
M  END
>  <Compound_ID>  (62) 
CHEMBL3981578

>  <Molecule Name>  (62) 
nan

>  <Molecular Weight>  (62) 
428.46

>  <AlogP>  (62) 
4.54

>  <Smiles>  (62) 
Cc1cc(Nc2cc(C(F)(F)F)ccn2)nc(-c2ccc(N3CCCC(N)C3)nc2)c1

>  <Standard Type>  (62) 
IC50

>  <Standard Relation>  (62) 
'='

>  <Standard Units>  (62) 
nM

>  <Standard Value>  (62) 
2.0

>  <Assay ChEMBL ID>  (62) 
CHEMBL3887083

>  <Assay Description>  (62) 
Homogeneous Time-Resolved Fluorescence (HTRF) Assay: A recombinant GST-hSyk fusion protein was used to measure potency of compounds to inhibit human Syk activity. The recombinant human GST-Syk (Carna Biosciences #08-176) (5 pM final concentration) was incubated with various concentrations of the inhibitor diluted in DMSO (0.1% final concentration) for 10 minutes at room temperature in 15 mM Tris-HCl (pH 7.5), 0.01% tween 20, 2 mM DTT in 384 well plate format. To initiate the reaction the biotinylated substrate peptide (250 nM final concentration) that contains the phosphorylation site for Syk was added with magnesium (5 mM final concentration) and ATP (25 uM final concentration). Final volume of the reaction was 10 uL. Phosphorylation of the peptide was allowed to proceed for 45x at room temperature. To quench the reaction and detect the phosphorylated product, 2 nM of a Europium-anti-phosphotyrosine antibody (Perkin Elmer #AD0161) and 70 nM SA-APC (Perkin-Elmer #CR130-100) were added together in 15 mM Tris pH 7.5.

>  <BAO Format ID>  (62) 
BAO_0000357

>  <BAO Label>  (62) 
single protein format

>  <Assay Organism>  (62) 
Homo sapiens

>  <Target ChEMBL ID>  (62) 
CHEMBL2599

>  <Target Name>  (62) 
Tyrosine-protein kinase SYK

>  <Target Organism>  (62) 
Homo sapiens

>  <Target Type>  (62) 
SINGLE PROTEIN

>  <Document ChEMBL ID>  (62) 
CHEMBL3886158

>  <Source Description>  (62) 
BindingDB Database

>  <Document Journal>  (62) 
nan

>  <Document Year>  (62) 
2015.0

>  <Active>  (62) 
1.0

>  <bits>  (62) 
<rdkit.DataStructs.cDataStructs.ExplicitBitVect object at 0x00000193F34038B0>

>  <Group>  (62) 
G2

$$$$

     RDKit          2D

 30 32  0  0  0  0  0  0  0  0999 V2000
  -12.7500   -3.8971    0.0000 C   0  0  0  0  0  0  0  0  0  0  0  0
  -12.0000   -5.1962    0.0000 C   0  0  0  0  0  0  0  0  0  0  0  0
  -10.5000   -5.1962    0.0000 O   0  0  0  0  0  0  0  0  0  0  0  0
   -9.7500   -6.4952    0.0000 C   0  0  0  0  0  0  0  0  0  0  0  0
   -8.2500   -6.4952    0.0000 C   0  0  0  0  0  0  0  0  0  0  0  0
   -7.5000   -5.1962    0.0000 N   0  0  0  0  0  0  0  0  0  0  0  0
   -7.5000   -7.7942    0.0000 C   0  0  0  0  0  0  0  0  0  0  0  0
   -8.2500   -9.0933    0.0000 C   0  0  0  0  0  0  0  0  0  0  0  0
   -6.0000   -7.7942    0.0000 N   0  0  0  0  0  0  0  0  0  0  0  0
   -5.2500   -6.4952    0.0000 C   0  0  0  0  0  0  0  0  0  0  0  0
   -6.0000   -5.1962    0.0000 N   0  0  0  0  0  0  0  0  0  0  0  0
   -5.2500   -3.8971    0.0000 N   0  0  0  0  0  0  0  0  0  0  0  0
   -3.7500   -3.8971    0.0000 C   0  0  0  0  0  0  0  0  0  0  0  0
   -3.0000   -2.5981    0.0000 C   0  0  0  0  0  0  0  0  0  0  0  0
   -3.7500   -1.2990    0.0000 N   0  0  0  0  0  0  0  0  0  0  0  0
   -1.5000   -2.5981    0.0000 O   0  0  0  0  0  0  0  0  0  0  0  0
   -3.0000   -5.1962    0.0000 C   0  0  0  0  0  0  0  0  0  0  0  0
   -1.5000   -5.1962    0.0000 N   0  0  0  0  0  0  0  0  0  0  0  0
   -0.7500   -6.4952    0.0000 C   0  0  0  0  0  0  0  0  0  0  0  0
   -1.5000   -7.7942    0.0000 C   0  0  0  0  0  0  0  0  0  0  0  0
   -0.7500   -9.0933    0.0000 C   0  0  0  0  0  0  0  0  0  0  0  0
   -1.5000  -10.3923    0.0000 C   0  0  0  0  0  0  0  0  0  0  0  0
    0.7500   -9.0933    0.0000 C   0  0  0  0  0  0  0  0  0  0  0  0
    1.5000  -10.3923    0.0000 N   0  0  0  0  0  0  0  0  0  0  0  0
    3.0000  -10.3923    0.0000 C   0  0  0  0  0  0  0  0  0  0  0  0
    3.7500   -9.0933    0.0000 C   0  0  0  0  0  0  0  0  0  0  0  0
    3.0000   -7.7942    0.0000 C   0  0  0  0  0  0  0  0  0  0  0  0
    1.5000   -7.7942    0.0000 C   0  0  0  0  0  0  0  0  0  0  0  0
    0.7500   -6.4952    0.0000 C   0  0  0  0  0  0  0  0  0  0  0  0
   -3.7500   -6.4952    0.0000 N   0  0  0  0  0  0  0  0  0  0  0  0
  1  2  1  0
  2  3  1  0
  3  4  1  0
  4  5  1  0
  5  6  1  6
  5  7  1  0
  7  8  1  6
  7  9  1  0
  9 10  1  0
 10 11  2  0
 11 12  1  0
 12 13  2  0
 13 14  1  0
 14 15  1  0
 14 16  2  0
 13 17  1  0
 17 18  1  0
 18 19  1  0
 19 20  2  0
 20 21  1  0
 21 22  1  0
 21 23  2  0
 23 24  1  0
 24 25  2  0
 25 26  1  0
 26 27  2  0
 27 28  1  0
 28 29  2  0
 17 30  2  0
 30 10  1  0
 29 19  1  0
 28 23  1  0
M  END
>  <Compound_ID>  (63) 
CHEMBL4107501

>  <Molecule Name>  (63) 
nan

>  <Molecular Weight>  (63) 
410.48

>  <AlogP>  (63) 
1.73

>  <Smiles>  (63) 
CCOC[C@H](N)[C@@H](C)Nc1nnc(C(N)=O)c(Nc2cc(C)c3ncccc3c2)n1

>  <Standard Type>  (63) 
IC50

>  <Standard Relation>  (63) 
'='

>  <Standard Units>  (63) 
nM

>  <Standard Value>  (63) 
0.48

>  <Assay ChEMBL ID>  (63) 
CHEMBL3887308

>  <Assay Description>  (63) 
Syk Kinase Inhibition Assay: The in vitro inhibitory activity of the compound of the present invention against Syk kinase activity was assayed under the following conditions: the purified human Syk protein used in the test were purchased from Carna Biosciences, Inc. For the inhibitory activity assay on the compound, the compound of the present invention was first serially diluted with dimethyl sulfoxide (DMSO). Next, the purified human Syk protein FL-Peptide 22 (final concentration: 1 uM) (Caliper Life Sciences, Inc.), magnesium chloride (final concentration: 5 mM), ATP (final concentration: 30 uM), and each DMSO solution of the compound of the present invention (final concentration of DMSO: 5%) were added into a buffer solution for reaction (20 mM tris-HCl pH 7.5, 20 mM NaCl, 2.5 mM DTT, 0.02% Tween-20, 1% glycerol, 0.01 mM Pefabloc), and the mixture was then incubated at 25° C. for 30 minutes to perform kinase reaction. The kinase reaction was stopped by the addition thereto of EDTA.

>  <BAO Format ID>  (63) 
BAO_0000357

>  <BAO Label>  (63) 
single protein format

>  <Assay Organism>  (63) 
Homo sapiens

>  <Target ChEMBL ID>  (63) 
CHEMBL2599

>  <Target Name>  (63) 
Tyrosine-protein kinase SYK

>  <Target Organism>  (63) 
Homo sapiens

>  <Target Type>  (63) 
SINGLE PROTEIN

>  <Document ChEMBL ID>  (63) 
CHEMBL3886160

>  <Source Description>  (63) 
BindingDB Database

>  <Document Journal>  (63) 
nan

>  <Document Year>  (63) 
2015.0

>  <Active>  (63) 
1.0

>  <bits>  (63) 
<rdkit.DataStructs.cDataStructs.ExplicitBitVect object at 0x00000193F34028F0>

>  <Group>  (63) 
G2

$$$$

     RDKit          2D

 31 34  0  0  0  0  0  0  0  0999 V2000
    6.0000   -2.5981    0.0000 C   0  0  0  0  0  0  0  0  0  0  0  0
    5.2500   -1.2990    0.0000 O   0  0  0  0  0  0  0  0  0  0  0  0
    3.7500   -1.2990    0.0000 C   0  0  0  0  0  0  0  0  0  0  0  0
    3.0000    0.0000    0.0000 C   0  0  0  0  0  0  0  0  0  0  0  0
    3.7500    1.2990    0.0000 O   0  0  0  0  0  0  0  0  0  0  0  0
    1.5000    0.0000    0.0000 N   0  0  0  0  0  0  0  0  0  0  0  0
    0.7500   -1.2990    0.0000 C   0  0  0  0  0  0  0  0  0  0  0  0
   -0.7500   -1.2990    0.0000 C   0  0  0  0  0  0  0  0  0  0  0  0
   -1.5000    0.0000    0.0000 N   0  0  0  0  0  0  0  0  0  0  0  0
   -3.0000    0.0000    0.0000 C   0  0  0  0  0  0  0  0  0  0  0  0
   -3.7500    1.2990    0.0000 C   0  0  0  0  0  0  0  0  0  0  0  0
   -5.2500    1.2990    0.0000 C   0  0  0  0  0  0  0  0  0  0  0  0
   -6.0000    0.0000    0.0000 C   0  0  0  0  0  0  0  0  0  0  0  0
   -7.5000    0.0000    0.0000 N   0  0  0  0  0  0  0  0  0  0  0  0
   -8.2500    1.2990    0.0000 C   0  0  0  0  0  0  0  0  0  0  0  0
   -7.5000    2.5981    0.0000 N   0  0  0  0  0  0  0  0  0  0  0  0
   -8.2500    3.8971    0.0000 C   0  0  0  0  0  0  0  0  0  0  0  0
   -9.7500    3.8971    0.0000 C   0  0  0  0  0  0  0  0  0  0  0  0
  -10.5000    5.1962    0.0000 C   0  0  0  0  0  0  0  0  0  0  0  0
   -9.7500    6.4952    0.0000 N   0  0  0  0  0  0  0  0  0  0  0  0
  -12.0000    5.1962    0.0000 O   0  0  0  0  0  0  0  0  0  0  0  0
  -10.5000    2.5981    0.0000 C   0  0  0  0  0  0  0  0  0  0  0  0
  -12.0000    2.5981    0.0000 N   0  0  0  0  0  0  0  0  0  0  0  0
  -12.7500    1.2990    0.0000 C   0  0  0  0  0  0  0  0  0  0  0  0
  -12.7500   -0.2010    0.0000 C   0  0  0  0  0  0  0  0  0  0  0  0
  -14.0490    0.5490    0.0000 C   0  0  0  0  0  0  0  0  0  0  0  0
   -9.7500    1.2990    0.0000 N   0  0  0  0  0  0  0  0  0  0  0  0
   -5.2500   -1.2990    0.0000 C   0  0  0  0  0  0  0  0  0  0  0  0
   -3.7500   -1.2990    0.0000 C   0  0  0  0  0  0  0  0  0  0  0  0
   -0.7500    1.2990    0.0000 C   0  0  0  0  0  0  0  0  0  0  0  0
    0.7500    1.2990    0.0000 C   0  0  0  0  0  0  0  0  0  0  0  0
  1  2  1  0
  2  3  1  0
  3  4  1  0
  4  5  2  0
  4  6  1  0
  6  7  1  0
  7  8  1  0
  8  9  1  0
  9 10  1  0
 10 11  2  0
 11 12  1  0
 12 13  2  0
 13 14  1  0
 14 15  1  0
 15 16  2  0
 16 17  1  0
 17 18  2  0
 18 19  1  0
 19 20  1  0
 19 21  2  0
 18 22  1  0
 22 23  1  0
 23 24  1  0
 24 25  1  0
 25 26  1  0
 22 27  2  0
 13 28  1  0
 28 29  2  0
  9 30  1  0
 30 31  1  0
 31  6  1  0
 29 10  1  0
 27 15  1  0
 26 24  1  0
M  END
>  <Compound_ID>  (64) 
CHEMBL3645119

>  <Molecule Name>  (64) 
nan

>  <Molecular Weight>  (64) 
425.49

>  <AlogP>  (64) 
1.19

>  <Smiles>  (64) 
COCC(=O)N1CCN(c2ccc(Nc3ncc(C(N)=O)c(NC4CC4)n3)cc2)CC1

>  <Standard Type>  (64) 
Kd

>  <Standard Relation>  (64) 
'='

>  <Standard Units>  (64) 
nM

>  <Standard Value>  (64) 
98.0

>  <Assay ChEMBL ID>  (64) 
CHEMBL3707841

>  <Assay Description>  (64) 
Ambit KinomeScan Assay: This assay is an ATP-site dependent competition binding assay in which human kinases of interest are fused to a proprietary tag (T7 bacteriophage). The amount of kinase bound to an immobilized, active-site directed ligand is measured in the presence and absence of the test compound. Ambit's JAK assays use kinase domains and not full-length proteins. The domain used for JAK1 binding is the pseudo kinase domain while that for JAK3 binding is the catalytic domain (Mazen W Karaman, Sanna Herrgard, Daniel K Treiber, et. al. A Quantitative analysis of kinase inhibitor selectivity. Nature Biotechnology, 2008, Volume 26, No. 1, Page 127-132).

>  <BAO Format ID>  (64) 
BAO_0000357

>  <BAO Label>  (64) 
single protein format

>  <Assay Organism>  (64) 
Homo sapiens

>  <Target ChEMBL ID>  (64) 
CHEMBL2599

>  <Target Name>  (64) 
Tyrosine-protein kinase SYK

>  <Target Organism>  (64) 
Homo sapiens

>  <Target Type>  (64) 
SINGLE PROTEIN

>  <Document ChEMBL ID>  (64) 
CHEMBL3638708

>  <Source Description>  (64) 
BindingDB Database

>  <Document Journal>  (64) 
nan

>  <Document Year>  (64) 
2015.0

>  <Active>  (64) 
1.0

>  <bits>  (64) 
<rdkit.DataStructs.cDataStructs.ExplicitBitVect object at 0x00000193F3401D90>

>  <Group>  (64) 
G2

$$$$

     RDKit          2D

 37 41  0  0  0  0  0  0  0  0999 V2000
    4.6740   -4.8322    0.0000 C   0  0  0  0  0  0  0  0  0  0  0  0
    3.3037   -4.2221    0.0000 C   0  0  0  0  0  0  0  0  0  0  0  0
    2.9918   -2.7549    0.0000 C   0  0  0  0  0  0  0  0  0  0  0  0
    1.5000   -2.5981    0.0000 N   0  0  0  0  0  0  0  0  0  0  0  0
    0.7500   -1.2990    0.0000 C   0  0  0  0  0  0  0  0  0  0  0  0
    1.5000    0.0000    0.0000 C   0  0  0  0  0  0  0  0  0  0  0  0
    0.7500    1.2990    0.0000 C   0  0  0  0  0  0  0  0  0  0  0  0
   -0.7500    1.2990    0.0000 N   0  0  0  0  0  0  0  0  0  0  0  0
   -1.5000    0.0000    0.0000 C   0  0  0  0  0  0  0  0  0  0  0  0
   -3.0000    0.0000    0.0000 N   0  0  0  0  0  0  0  0  0  0  0  0
   -3.7500    1.2990    0.0000 C   0  0  0  0  0  0  0  0  0  0  0  0
   -3.0000    2.5981    0.0000 C   0  0  0  0  0  0  0  0  0  0  0  0
   -3.7500    3.8971    0.0000 C   0  0  0  0  0  0  0  0  0  0  0  0
   -3.0000    5.1962    0.0000 C   0  0  0  0  0  0  0  0  0  0  0  0
   -5.2500    3.8971    0.0000 C   0  0  0  0  0  0  0  0  0  0  0  0
   -6.0000    5.1962    0.0000 O   0  0  0  0  0  0  0  0  0  0  0  0
   -7.5000    5.1962    0.0000 C   0  0  0  0  0  0  0  0  0  0  0  0
   -8.2500    6.4952    0.0000 C   0  0  0  0  0  0  0  0  0  0  0  0
   -7.5000    7.7942    0.0000 O   0  0  0  0  0  0  0  0  0  0  0  0
   -9.7500    6.4952    0.0000 N   0  0  0  0  0  0  0  0  0  0  0  0
  -10.6317    5.2817    0.0000 C   0  0  0  0  0  0  0  0  0  0  0  0
  -12.0583    5.7452    0.0000 C   0  0  0  0  0  0  0  0  0  0  0  0
  -12.0583    7.2452    0.0000 C   0  0  0  0  0  0  0  0  0  0  0  0
  -10.6317    7.7087    0.0000 C   0  0  0  0  0  0  0  0  0  0  0  0
   -6.0000    2.5981    0.0000 C   0  0  0  0  0  0  0  0  0  0  0  0
   -7.5000    2.5981    0.0000 C   0  0  0  0  0  0  0  0  0  0  0  0
   -5.2500    1.2990    0.0000 C   0  0  0  0  0  0  0  0  0  0  0  0
   -0.7500   -1.2990    0.0000 N   0  0  0  0  0  0  0  0  0  0  0  0
    0.8899   -3.9684    0.0000 C   0  0  0  0  0  0  0  0  0  0  0  0
    2.0046   -4.9721    0.0000 C   0  0  0  0  0  0  0  0  0  0  0  0
    1.8478   -6.4639    0.0000 C   0  0  0  0  0  0  0  0  0  0  0  0
    0.4775   -7.0740    0.0000 N   0  0  0  0  0  0  0  0  0  0  0  0
    0.1656   -8.5412    0.0000 C   0  0  0  0  0  0  0  0  0  0  0  0
   -1.3261   -8.6980    0.0000 C   0  0  0  0  0  0  0  0  0  0  0  0
   -1.9363   -7.3277    0.0000 C   0  0  0  0  0  0  0  0  0  0  0  0
   -3.4035   -7.0158    0.0000 O   0  0  0  0  0  0  0  0  0  0  0  0
   -0.8215   -6.3240    0.0000 C   0  0  0  0  0  0  0  0  0  0  0  0
  1  2  1  0
  2  3  2  0
  3  4  1  0
  4  5  1  0
  5  6  2  0
  6  7  1  0
  7  8  2  0
  8  9  1  0
  9 10  1  0
 10 11  1  0
 11 12  2  0
 12 13  1  0
 13 14  1  0
 13 15  2  0
 15 16  1  0
 16 17  1  0
 17 18  1  0
 18 19  2  0
 18 20  1  0
 20 21  1  0
 21 22  1  0
 22 23  1  0
 23 24  1  0
 15 25  1  0
 25 26  1  0
 25 27  2  0
  9 28  2  0
  4 29  1  0
 29 30  2  0
 30 31  1  0
 31 32  1  0
 32 33  1  0
 33 34  1  0
 34 35  1  0
 35 36  1  1
 35 37  1  0
 30  2  1  0
 37 32  1  0
 28  5  1  0
 27 11  1  0
 24 20  1  0
M  END
>  <Compound_ID>  (65) 
CHEMBL3622941

>  <Molecule Name>  (65) 
nan

>  <Molecular Weight>  (65) 
504.64

>  <AlogP>  (65) 
3.50

>  <Smiles>  (65) 
Cc1cn(-c2ccnc(Nc3cc(C)c(OCC(=O)N4CCCC4)c(C)c3)n2)cc1CN1CC[C@@H](O)C1

>  <Standard Type>  (65) 
IC50

>  <Standard Relation>  (65) 
'='

>  <Standard Units>  (65) 
nM

>  <Standard Value>  (65) 
14.4

>  <Assay ChEMBL ID>  (65) 
CHEMBL3627015

>  <Assay Description>  (65) 
Inhibition of purified full-length human SYK pre-incubated for 30 mins at room temperature before Ulight-TK peptide substrate addition and measured 1 hr after substrate addition by cell free kinase assay

>  <BAO Format ID>  (65) 
BAO_0000357

>  <BAO Label>  (65) 
single protein format

>  <Assay Organism>  (65) 
Homo sapiens

>  <Target ChEMBL ID>  (65) 
CHEMBL2599

>  <Target Name>  (65) 
Tyrosine-protein kinase SYK

>  <Target Organism>  (65) 
Homo sapiens

>  <Target Type>  (65) 
SINGLE PROTEIN

>  <Document ChEMBL ID>  (65) 
CHEMBL3621069

>  <Source Description>  (65) 
Scientific Literature

>  <Document Journal>  (65) 
Bioorg Med Chem Lett

>  <Document Year>  (65) 
2015.0

>  <Active>  (65) 
1.0

>  <bits>  (65) 
<rdkit.DataStructs.cDataStructs.ExplicitBitVect object at 0x00000193F34022D0>

>  <Group>  (65) 
G2

$$$$

     RDKit          2D

 34 38  0  0  0  0  0  0  0  0999 V2000
   -1.5000   -5.1962    0.0000 C   0  0  0  0  0  0  0  0  0  0  0  0
   -0.7500   -3.8971    0.0000 C   0  0  0  0  0  0  0  0  0  0  0  0
    0.7500   -3.8971    0.0000 C   0  0  0  0  0  0  0  0  0  0  0  0
    1.5000   -2.5981    0.0000 C   0  0  0  0  0  0  0  0  0  0  0  0
    3.0000   -2.5981    0.0000 N   0  0  0  0  0  0  0  0  0  0  0  0
    0.7500   -1.2990    0.0000 C   0  0  0  0  0  0  0  0  0  0  0  0
    1.5000    0.0000    0.0000 C   0  0  0  0  0  0  0  0  0  0  0  0
    0.7500    1.2990    0.0000 C   0  0  0  0  0  0  0  0  0  0  0  0
    1.5000    2.5981    0.0000 N   0  0  0  0  0  0  0  0  0  0  0  0
    3.0000    2.5981    0.0000 C   0  0  0  0  0  0  0  0  0  0  0  0
    3.7500    1.2990    0.0000 N   0  0  0  0  0  0  0  0  0  0  0  0
    5.2500    1.2990    0.0000 C   0  0  0  0  0  0  0  0  0  0  0  0
    6.0000   -0.0000    0.0000 N   0  0  0  0  0  0  0  0  0  0  0  0
    7.5000   -0.0000    0.0000 C   0  0  0  0  0  0  0  0  0  0  0  0
    8.2500    1.2990    0.0000 C   0  0  0  0  0  0  0  0  0  0  0  0
    9.7500    1.2990    0.0000 C   0  0  0  0  0  0  0  0  0  0  0  0
   10.5000    0.0000    0.0000 C   0  0  0  0  0  0  0  0  0  0  0  0
   12.0000    0.0000    0.0000 N   0  0  0  0  0  0  0  0  0  0  0  0
   12.7500    1.2990    0.0000 C   0  0  0  0  0  0  0  0  0  0  0  0
   14.2500    1.2990    0.0000 C   0  0  0  0  0  0  0  0  0  0  0  0
   15.0000   -0.0000    0.0000 N   0  0  0  0  0  0  0  0  0  0  0  0
   16.5000   -0.0000    0.0000 C   0  0  0  0  0  0  0  0  0  0  0  0
   14.2500   -1.2990    0.0000 C   0  0  0  0  0  0  0  0  0  0  0  0
   12.7500   -1.2990    0.0000 C   0  0  0  0  0  0  0  0  0  0  0  0
    9.7500   -1.2990    0.0000 C   0  0  0  0  0  0  0  0  0  0  0  0
    8.2500   -1.2990    0.0000 C   0  0  0  0  0  0  0  0  0  0  0  0
    6.0000    2.5981    0.0000 N   0  0  0  0  0  0  0  0  0  0  0  0
    5.2500    3.8971    0.0000 C   0  0  0  0  0  0  0  0  0  0  0  0
    3.7500    3.8971    0.0000 C   0  0  0  0  0  0  0  0  0  0  0  0
    3.0000    5.1962    0.0000 F   0  0  0  0  0  0  0  0  0  0  0  0
   -0.7500    1.2990    0.0000 C   0  0  0  0  0  0  0  0  0  0  0  0
   -1.5000    0.0000    0.0000 C   0  0  0  0  0  0  0  0  0  0  0  0
   -0.7500   -1.2990    0.0000 C   0  0  0  0  0  0  0  0  0  0  0  0
   -1.5000   -2.5981    0.0000 N   0  0  0  0  0  0  0  0  0  0  0  0
  1  2  1  0
  2  3  2  0
  3  4  1  0
  4  5  1  0
  4  6  2  0
  6  7  1  0
  7  8  2  0
  8  9  1  0
  9 10  1  0
 10 11  2  0
 11 12  1  0
 12 13  1  0
 13 14  1  0
 14 15  2  0
 15 16  1  0
 16 17  2  0
 17 18  1  0
 18 19  1  0
 19 20  1  0
 20 21  1  0
 21 22  1  0
 21 23  1  0
 23 24  1  0
 17 25  1  0
 25 26  2  0
 12 27  2  0
 27 28  1  0
 28 29  2  0
 29 30  1  0
  8 31  1  0
 31 32  2  0
 32 33  1  0
 33 34  2  0
 34  2  1  0
 33  6  1  0
 29 10  1  0
 26 14  1  0
 24 18  1  0
M  END
>  <Compound_ID>  (66) 
CHEMBL3409422

>  <Molecule Name>  (66) 
nan

>  <Molecular Weight>  (66) 
458.55

>  <AlogP>  (66) 
4.29

>  <Smiles>  (66) 
Cc1cc(N)c2cc(Nc3nc(Nc4ccc(N5CCN(C)CC5)cc4)ncc3F)ccc2n1

>  <Standard Type>  (66) 
IC50

>  <Standard Relation>  (66) 
'='

>  <Standard Units>  (66) 
nM

>  <Standard Value>  (66) 
13.0

>  <Assay ChEMBL ID>  (66) 
CHEMBL3411021

>  <Assay Description>  (66) 
Inhibition of SYK (unknown origin)

>  <BAO Format ID>  (66) 
BAO_0000357

>  <BAO Label>  (66) 
single protein format

>  <Assay Organism>  (66) 
Homo sapiens

>  <Target ChEMBL ID>  (66) 
CHEMBL2599

>  <Target Name>  (66) 
Tyrosine-protein kinase SYK

>  <Target Organism>  (66) 
Homo sapiens

>  <Target Type>  (66) 
SINGLE PROTEIN

>  <Document ChEMBL ID>  (66) 
CHEMBL3407453

>  <Source Description>  (66) 
Scientific Literature

>  <Document Journal>  (66) 
Eur J Med Chem

>  <Document Year>  (66) 
2015.0

>  <Active>  (66) 
1.0

>  <bits>  (66) 
<rdkit.DataStructs.cDataStructs.ExplicitBitVect object at 0x00000193F3400F90>

>  <Group>  (66) 
G2

$$$$

     RDKit          2D

 31 35  0  0  0  0  0  0  0  0999 V2000
   -0.1459    3.7548    0.0000 O   0  0  0  0  0  0  0  0  0  0  0  0
    0.8578    2.6401    0.0000 C   0  0  0  0  0  0  0  0  0  0  0  0
    0.3943    1.2135    0.0000 C   0  0  0  0  0  0  0  0  0  0  0  0
    1.2760    0.0000    0.0000 C   0  0  0  0  0  0  0  0  0  0  0  0
    0.3943   -1.2135    0.0000 C   0  0  0  0  0  0  0  0  0  0  0  0
    0.7062   -2.6807    0.0000 C   0  0  0  0  0  0  0  0  0  0  0  0
   -0.4086   -3.6844    0.0000 C   0  0  0  0  0  0  0  0  0  0  0  0
   -0.0967   -5.1517    0.0000 N   0  0  0  0  0  0  0  0  0  0  0  0
   -1.2114   -6.1554    0.0000 C   0  0  0  0  0  0  0  0  0  0  0  0
   -2.6380   -5.6918    0.0000 N   0  0  0  0  0  0  0  0  0  0  0  0
   -3.7527   -6.6955    0.0000 C   0  0  0  0  0  0  0  0  0  0  0  0
   -3.4408   -8.1628    0.0000 C   0  0  0  0  0  0  0  0  0  0  0  0
   -2.0143   -8.6263    0.0000 C   0  0  0  0  0  0  0  0  0  0  0  0
   -1.7024  -10.0935    0.0000 C   0  0  0  0  0  0  0  0  0  0  0  0
   -2.8171  -11.0972    0.0000 C   0  0  0  0  0  0  0  0  0  0  0  0
   -2.5052  -12.5644    0.0000 C   0  0  0  0  0  0  0  0  0  0  0  0
   -1.0786  -13.0279    0.0000 C   0  0  0  0  0  0  0  0  0  0  0  0
    0.0361  -12.0242    0.0000 C   0  0  0  0  0  0  0  0  0  0  0  0
   -0.2758  -10.5570    0.0000 N   0  0  0  0  0  0  0  0  0  0  0  0
   -0.8995   -7.6226    0.0000 N   0  0  0  0  0  0  0  0  0  0  0  0
   -1.8351   -3.2209    0.0000 C   0  0  0  0  0  0  0  0  0  0  0  0
   -2.1470   -1.7537    0.0000 C   0  0  0  0  0  0  0  0  0  0  0  0
   -3.5736   -1.2902    0.0000 Cl  0  0  0  0  0  0  0  0  0  0  0  0
   -1.0323   -0.7500    0.0000 C   0  0  0  0  0  0  0  0  0  0  0  0
   -1.0323    0.7500    0.0000 N   0  0  0  0  0  0  0  0  0  0  0  0
    2.3250    2.9520    0.0000 N   0  0  0  0  0  0  0  0  0  0  0  0
    3.3287    1.8373    0.0000 C   0  0  0  0  0  0  0  0  0  0  0  0
    4.7960    2.1491    0.0000 C   0  0  0  0  0  0  0  0  0  0  0  0
    5.2595    3.5757    0.0000 C   0  0  0  0  0  0  0  0  0  0  0  0
    4.2558    4.6904    0.0000 C   0  0  0  0  0  0  0  0  0  0  0  0
    2.7886    4.3786    0.0000 N   0  0  0  0  0  0  0  0  0  0  0  0
  1  2  2  0
  2  3  1  0
  3  4  2  0
  4  5  1  0
  5  6  2  0
  6  7  1  0
  7  8  1  0
  8  9  1  0
  9 10  2  0
 10 11  1  0
 11 12  2  0
 12 13  1  0
 13 14  1  0
 14 15  2  0
 15 16  1  0
 16 17  2  0
 17 18  1  0
 18 19  2  0
 13 20  2  0
  7 21  2  0
 21 22  1  0
 22 23  1  0
 22 24  2  0
 24 25  1  0
  2 26  1  0
 26 27  1  0
 27 28  1  0
 28 29  1  0
 29 30  1  0
 30 31  1  0
 25  3  1  0
 31 26  1  0
 24  5  1  0
 20  9  1  0
 19 14  1  0
M  END
>  <Compound_ID>  (67) 
CHEMBL3643822

>  <Molecule Name>  (67) 
nan

>  <Molecular Weight>  (67) 
433.9

>  <AlogP>  (67) 
4.16

>  <Smiles>  (67) 
O=C(c1cc2cc(Nc3nccc(-c4ccccn4)n3)cc(Cl)c2[nH]1)N1CCCCN1

>  <Standard Type>  (67) 
IC50

>  <Standard Relation>  (67) 
'='

>  <Standard Units>  (67) 
nM

>  <Standard Value>  (67) 
32.3

>  <Assay ChEMBL ID>  (67) 
CHEMBL3705803

>  <Assay Description>  (67) 
Kinase Glo Luminescence Kinase Assay: Recombinant human Syk (amino acids 342-635) was expressed as a fusion protein with an N-terminal GST tag, affinity-purified and deep-frozen at a concentration of approx. 50-100 uM in test buffer (25 mM HEPES pH7.5; 25 mM MgCl2; 5 mM MnCl2; 50 mM KCl; 0.2% BSA; 0.01% CHAPS; 100 uM Na3VO4; 0.5 mM DTT) and 10% glycerol at -80 C until use. The catalytic activity of the GST-Syk kinase fusion protein was determined using the Kinase Glo Luminescence Kinase test (Promega; V6712). In this homogeneous test the amount of ATP remaining after the kinase reaction is quantified by a luciferin-luciferase reaction using luminescence. The luminescence signal obtained correlates with the amount of ATP still present and thus correlates inversely with the activity of the protein kinase. The test compounds were dissolved in 100% DMSO at a concentration of 10 mM and diluted in DMSO to a concentration of 1 mM.

>  <BAO Format ID>  (67) 
BAO_0000357

>  <BAO Label>  (67) 
single protein format

>  <Assay Organism>  (67) 
Homo sapiens

>  <Target ChEMBL ID>  (67) 
CHEMBL2599

>  <Target Name>  (67) 
Tyrosine-protein kinase SYK

>  <Target Organism>  (67) 
Homo sapiens

>  <Target Type>  (67) 
SINGLE PROTEIN

>  <Document ChEMBL ID>  (67) 
CHEMBL3638486

>  <Source Description>  (67) 
BindingDB Database

>  <Document Journal>  (67) 
nan

>  <Document Year>  (67) 
2014.0

>  <Active>  (67) 
1.0

>  <bits>  (67) 
<rdkit.DataStructs.cDataStructs.ExplicitBitVect object at 0x00000193F3400BA0>

>  <Group>  (67) 
G2

$$$$

     RDKit          2D

 33 35  0  0  0  0  0  0  0  0999 V2000
    7.5000    2.5981    0.0000 C   0  0  0  0  0  0  0  0  0  0  0  0
    6.0000    2.5981    0.0000 N   0  0  0  0  0  0  0  0  0  0  0  0
    5.2500    1.2990    0.0000 C   0  0  0  0  0  0  0  0  0  0  0  0
    6.0000    0.0000    0.0000 O   0  0  0  0  0  0  0  0  0  0  0  0
    3.7500    1.2990    0.0000 C   0  0  0  0  0  0  0  0  0  0  0  0
    3.0000    0.0000    0.0000 O   0  0  0  0  0  0  0  0  0  0  0  0
    1.5000    0.0000    0.0000 C   0  0  0  0  0  0  0  0  0  0  0  0
    0.7500   -1.2990    0.0000 C   0  0  0  0  0  0  0  0  0  0  0  0
    1.5000   -2.5981    0.0000 C   0  0  0  0  0  0  0  0  0  0  0  0
   -0.7500   -1.2990    0.0000 C   0  0  0  0  0  0  0  0  0  0  0  0
   -1.5000    0.0000    0.0000 C   0  0  0  0  0  0  0  0  0  0  0  0
   -0.7500    1.2990    0.0000 C   0  0  0  0  0  0  0  0  0  0  0  0
   -1.5000    2.5981    0.0000 N   0  0  0  0  0  0  0  0  0  0  0  0
   -0.7500    3.8971    0.0000 C   0  0  0  0  0  0  0  0  0  0  0  0
    0.7500    3.8971    0.0000 N   0  0  0  0  0  0  0  0  0  0  0  0
    1.5000    5.1962    0.0000 C   0  0  0  0  0  0  0  0  0  0  0  0
    0.7500    6.4952    0.0000 C   0  0  0  0  0  0  0  0  0  0  0  0
    1.5000    7.7942    0.0000 F   0  0  0  0  0  0  0  0  0  0  0  0
   -0.7500    6.4952    0.0000 C   0  0  0  0  0  0  0  0  0  0  0  0
   -1.5000    7.7942    0.0000 N   0  0  0  0  0  0  0  0  0  0  0  0
   -3.0000    7.7942    0.0000 C   0  0  0  0  0  0  0  0  0  0  0  0
   -3.7500    9.0933    0.0000 C   0  0  0  0  0  0  0  0  0  0  0  0
   -5.2500    9.0933    0.0000 C   0  0  0  0  0  0  0  0  0  0  0  0
   -6.0000    7.7942    0.0000 C   0  0  0  0  0  0  0  0  0  0  0  0
   -5.2500    6.4952    0.0000 C   0  0  0  0  0  0  0  0  0  0  0  0
   -6.0000    5.1962    0.0000 C   0  0  0  0  0  0  0  0  0  0  0  0
   -5.2500    3.8971    0.0000 O   0  0  0  0  0  0  0  0  0  0  0  0
   -7.5000    5.1962    0.0000 N   0  0  0  0  0  0  0  0  0  0  0  0
   -8.2500    3.8971    0.0000 O   0  0  0  0  0  0  0  0  0  0  0  0
   -9.7500    3.8971    0.0000 C   0  0  0  0  0  0  0  0  0  0  0  0
   -3.7500    6.4952    0.0000 C   0  0  0  0  0  0  0  0  0  0  0  0
   -1.5000    5.1962    0.0000 N   0  0  0  0  0  0  0  0  0  0  0  0
    0.7500    1.2990    0.0000 C   0  0  0  0  0  0  0  0  0  0  0  0
  1  2  1  0
  2  3  1  0
  3  4  2  0
  3  5  1  0
  5  6  1  0
  6  7  1  0
  7  8  2  0
  8  9  1  0
  8 10  1  0
 10 11  1  0
 11 12  1  0
 12 13  1  0
 13 14  1  0
 14 15  2  0
 15 16  1  0
 16 17  2  0
 17 18  1  0
 17 19  1  0
 19 20  1  0
 20 21  1  0
 21 22  2  0
 22 23  1  0
 23 24  2  0
 24 25  1  0
 25 26  1  0
 26 27  2  0
 26 28  1  0
 28 29  1  0
 29 30  1  0
 25 31  2  0
 19 32  2  0
 12 33  2  0
 33  7  1  0
 32 14  1  0
 31 21  1  0
M  END
>  <Compound_ID>  (68) 
CHEMBL3934804

>  <Molecule Name>  (68) 
nan

>  <Molecular Weight>  (68) 
456.48

>  <AlogP>  (68) 
2.78

>  <Smiles>  (68) 
CNC(=O)COC1=C(C)CCC(Nc2ncc(F)c(Nc3cccc(C(=O)NOC)c3)n2)=C1

>  <Standard Type>  (68) 
IC50

>  <Standard Relation>  (68) 
'='

>  <Standard Units>  (68) 
nM

>  <Standard Value>  (68) 
66.5

>  <Assay ChEMBL ID>  (68) 
CHEMBL3889292

>  <Assay Description>  (68) 
Biochemical Assay: Several 2,4-pyrimidinediamine compounds were tested for the ability to inhibit Syk kinase catalyzed phosphorylation of a peptide substrate in a biochemical fluorescenced polarization assay with isolated Syk kinase. In this experiment, Compounds were diluted to 1% DMSO in kinase buffer (20 mM HEPES, pH 7.4, 5 mM MgCl2, 2 mM MnCl2, 1 mM DTT, 0.1 mg/mL acetylated Bovine Gamma Globulin). Compound in 1% DMSO (0.2% DMSO final) was mixed with ATP/substrate solution at room temperature. Syk kinase (Upstate, Lake Placid N.Y.) was added to a final reaction volume of 20 uL, and the reaction was incubated for 30 minutes at room temperature. Final enzyme reaction conditions were 20 mM HEPES, pH 7.4, 5 mM MgCl2, 2 mM MnCl2, 1 mM DTT, 0.1 mg/mL acetylated Bovine Gamma Globulin, 0.125 ng Syk, 4 uM ATP, 2.5 uM peptide substrate (biotin-EQEDEPEGDYEEVLE-CONH2, SynPep Corporation). EDTA (10 mM final)/anti-phosphotyrosine antibody (1x final)/fluorescent phosphopeptide tracer (0.5x final) was added in FP Dilution Buffer to stop the reaction for a total volume of 40 uL according to manufacturer's instructions (PanVera Corporation) The plate was incubated for 30 minutes in the dark at room temperature. Plates were read on a Polarion fluorescence polarization plate reader (Tecan). Data were converted to amount of phosphopeptide present using a calibration curve generated by competition with the phosphopeptide competitor provided in the Tyrosine Kinase Assay Kit, Green (PanVera Corporation).

>  <BAO Format ID>  (68) 
BAO_0000357

>  <BAO Label>  (68) 
single protein format

>  <Assay Organism>  (68) 
Homo sapiens

>  <Target ChEMBL ID>  (68) 
CHEMBL2599

>  <Target Name>  (68) 
Tyrosine-protein kinase SYK

>  <Target Organism>  (68) 
Homo sapiens

>  <Target Type>  (68) 
SINGLE PROTEIN

>  <Document ChEMBL ID>  (68) 
CHEMBL3887020

>  <Source Description>  (68) 
BindingDB Database

>  <Document Journal>  (68) 
nan

>  <Document Year>  (68) 
2016.0

>  <Active>  (68) 
1.0

>  <bits>  (68) 
<rdkit.DataStructs.cDataStructs.ExplicitBitVect object at 0x00000193F3401070>

>  <Group>  (68) 
G2

$$$$

     RDKit          2D

 27 29  0  0  0  0  0  0  0  0999 V2000
    3.0000    0.0000    0.0000 C   0  0  0  0  0  0  0  0  0  0  0  0
    1.5000    0.0000    0.0000 N   0  0  0  0  0  0  0  0  0  0  0  0
    0.7500   -1.2990    0.0000 C   0  0  0  0  0  0  0  0  0  0  0  0
   -0.7500   -1.2990    0.0000 N   0  0  0  0  0  0  0  0  0  0  0  0
   -1.5000    0.0000    0.0000 C   0  0  0  0  0  0  0  0  0  0  0  0
   -3.0000    0.0000    0.0000 C   0  0  0  0  0  0  0  0  0  0  0  0
   -3.7500    1.2990    0.0000 C   0  0  0  0  0  0  0  0  0  0  0  0
   -5.2500    1.2990    0.0000 C   0  0  0  0  0  0  0  0  0  0  0  0
   -6.0000    2.5981    0.0000 C   0  0  0  0  0  0  0  0  0  0  0  0
   -7.5000    2.5981    0.0000 C   0  0  0  0  0  0  0  0  0  0  0  0
   -8.2500    1.2990    0.0000 C   0  0  0  0  0  0  0  0  0  0  0  0
   -9.7500    1.2990    0.0000 C   0  0  0  0  0  0  0  0  0  0  0  0
   -9.7500   -0.2010    0.0000 C   0  0  0  0  0  0  0  0  0  0  0  0
   -9.7500    2.7990    0.0000 C   0  0  0  0  0  0  0  0  0  0  0  0
  -11.2500    1.2990    0.0000 N   0  0  0  0  0  0  0  0  0  0  0  0
   -7.5000    0.0000    0.0000 C   0  0  0  0  0  0  0  0  0  0  0  0
   -6.0000    0.0000    0.0000 C   0  0  0  0  0  0  0  0  0  0  0  0
   -3.0000    2.5981    0.0000 N   0  0  0  0  0  0  0  0  0  0  0  0
   -1.5000    2.5981    0.0000 C   0  0  0  0  0  0  0  0  0  0  0  0
   -0.7500    3.8971    0.0000 N   0  0  0  0  0  0  0  0  0  0  0  0
   -1.5000    5.1962    0.0000 C   0  0  0  0  0  0  0  0  0  0  0  0
   -0.7500    6.4952    0.0000 C   0  0  0  0  0  0  0  0  0  0  0  0
   -1.5000    7.7942    0.0000 C   0  0  0  0  0  0  0  0  0  0  0  0
   -0.7500    9.0933    0.0000 O   0  0  0  0  0  0  0  0  0  0  0  0
   -0.7500    1.2990    0.0000 C   0  0  0  0  0  0  0  0  0  0  0  0
    0.7500    1.2990    0.0000 C   0  0  0  0  0  0  0  0  0  0  0  0
    1.5000    2.5981    0.0000 O   0  0  0  0  0  0  0  0  0  0  0  0
  1  2  1  0
  2  3  1  0
  3  4  2  0
  4  5  1  0
  5  6  2  0
  6  7  1  0
  7  8  1  0
  8  9  2  0
  9 10  1  0
 10 11  2  0
 11 12  1  0
 12 13  1  0
 12 14  1  0
 12 15  1  0
 11 16  1  0
 16 17  2  0
  7 18  2  0
 18 19  1  0
 19 20  1  0
 20 21  1  0
 21 22  1  0
 22 23  1  0
 23 24  1  0
 19 25  2  0
 25 26  1  0
 26 27  2  0
 26  2  1  0
 25  5  1  0
 17  8  1  0
M  END
>  <Compound_ID>  (69) 
CHEMBL3701528

>  <Molecule Name>  (69) 
nan

>  <Molecular Weight>  (69) 
367.45

>  <AlogP>  (69) 
1.98

>  <Smiles>  (69) 
Cn1cnc2cc(-c3ccc(C(C)(C)N)cc3)nc(NCCCO)c2c1=O

>  <Standard Type>  (69) 
IC50

>  <Standard Relation>  (69) 
'='

>  <Standard Units>  (69) 
nM

>  <Standard Value>  (69) 
100.0

>  <Assay ChEMBL ID>  (69) 
CHEMBL3705362

>  <Assay Description>  (69) 
Mobility-Shift kinase assay: Compounds of the examples provided herein were assessed for their ability to inhibit Syk kinase by utilizing Caliper Life Sciences' proprietary LabChip technology. The off-chip incubation mobility-shift kinase assay uses a microfluidic chip to measure the conversion of a fluorescent peptide substrate to a phosphorylated product. The reaction mixture, from a microtiter plate well, is introduced through a capillary sipper onto the chip, where the nonphosphorylated substrate and phosphorylated product are separated by electrophoresis and detected via laser induced fluorescence. The signature of the fluorescence signal over time reveals the extent of the reaction. The phosphorylated product migrates through the chip faster than the non-phosphorylated substrate, and signals from the two forms of the peptide appear as distinct peaks.

>  <BAO Format ID>  (69) 
BAO_0000357

>  <BAO Label>  (69) 
single protein format

>  <Assay Organism>  (69) 
Homo sapiens

>  <Target ChEMBL ID>  (69) 
CHEMBL2599

>  <Target Name>  (69) 
Tyrosine-protein kinase SYK

>  <Target Organism>  (69) 
Homo sapiens

>  <Target Type>  (69) 
SINGLE PROTEIN

>  <Document ChEMBL ID>  (69) 
CHEMBL3639055

>  <Source Description>  (69) 
BindingDB Database

>  <Document Journal>  (69) 
nan

>  <Document Year>  (69) 
2014.0

>  <Active>  (69) 
1.0

>  <bits>  (69) 
<rdkit.DataStructs.cDataStructs.ExplicitBitVect object at 0x00000193F3403D10>

>  <Group>  (69) 
G2

$$$$

     RDKit          2D

 35 39  0  0  0  0  0  0  0  0999 V2000
  -10.8750    0.1691    0.0000 C   0  0  0  0  0  0  0  0  0  0  0  0
  -10.7183   -1.3227    0.0000 O   0  0  0  0  0  0  0  0  0  0  0  0
   -9.3479   -1.9328    0.0000 C   0  0  0  0  0  0  0  0  0  0  0  0
   -9.1911   -3.4246    0.0000 C   0  0  0  0  0  0  0  0  0  0  0  0
  -10.3059   -4.4283    0.0000 C   0  0  0  0  0  0  0  0  0  0  0  0
   -9.6958   -5.7986    0.0000 C   0  0  0  0  0  0  0  0  0  0  0  0
  -10.4458   -7.0976    0.0000 O   0  0  0  0  0  0  0  0  0  0  0  0
   -8.2040   -5.6418    0.0000 C   0  0  0  0  0  0  0  0  0  0  0  0
   -7.8921   -4.1746    0.0000 N   0  0  0  0  0  0  0  0  0  0  0  0
   -6.5218   -3.5645    0.0000 C   0  0  0  0  0  0  0  0  0  0  0  0
   -5.3083   -4.4462    0.0000 C   0  0  0  0  0  0  0  0  0  0  0  0
   -3.8817   -3.9826    0.0000 C   0  0  0  0  0  0  0  0  0  0  0  0
   -3.0000   -5.1962    0.0000 N   0  0  0  0  0  0  0  0  0  0  0  0
   -1.5000   -5.1962    0.0000 C   0  0  0  0  0  0  0  0  0  0  0  0
   -0.7500   -6.4952    0.0000 C   0  0  0  0  0  0  0  0  0  0  0  0
    0.7500   -6.4952    0.0000 C   0  0  0  0  0  0  0  0  0  0  0  0
    1.5000   -5.1962    0.0000 N   0  0  0  0  0  0  0  0  0  0  0  0
    0.7500   -3.8971    0.0000 C   0  0  0  0  0  0  0  0  0  0  0  0
    1.5000   -2.5981    0.0000 N   0  0  0  0  0  0  0  0  0  0  0  0
    0.7500   -1.2990    0.0000 C   0  0  0  0  0  0  0  0  0  0  0  0
    1.5000    0.0000    0.0000 C   0  0  0  0  0  0  0  0  0  0  0  0
    0.7500    1.2990    0.0000 C   0  0  0  0  0  0  0  0  0  0  0  0
   -0.7500    1.2990    0.0000 C   0  0  0  0  0  0  0  0  0  0  0  0
   -1.5000    0.0000    0.0000 C   0  0  0  0  0  0  0  0  0  0  0  0
   -0.7500   -1.2990    0.0000 C   0  0  0  0  0  0  0  0  0  0  0  0
   -2.9672    0.3119    0.0000 C   0  0  0  0  0  0  0  0  0  0  0  0
   -4.0819   -0.6918    0.0000 Cl  0  0  0  0  0  0  0  0  0  0  0  0
   -3.1240    1.8037    0.0000 C   0  0  0  0  0  0  0  0  0  0  0  0
   -4.4231    2.5537    0.0000 C   0  0  0  0  0  0  0  0  0  0  0  0
   -1.7537    2.4138    0.0000 N   0  0  0  0  0  0  0  0  0  0  0  0
   -1.4418    3.8810    0.0000 C   0  0  0  0  0  0  0  0  0  0  0  0
   -0.7500   -3.8971    0.0000 N   0  0  0  0  0  0  0  0  0  0  0  0
   -3.8817   -6.4097    0.0000 N   0  0  0  0  0  0  0  0  0  0  0  0
   -5.3083   -5.9462    0.0000 C   0  0  0  0  0  0  0  0  0  0  0  0
   -6.5218   -6.8278    0.0000 C   0  0  0  0  0  0  0  0  0  0  0  0
  1  2  1  0
  2  3  1  0
  4  3  1  1
  4  5  1  0
  5  6  1  0
  6  7  1  6
  6  8  1  0
  8  9  1  0
  9 10  1  0
 10 11  1  0
 11 12  2  0
 12 13  1  0
 13 14  1  0
 14 15  2  0
 15 16  1  0
 16 17  2  0
 17 18  1  0
 18 19  1  0
 19 20  1  0
 20 21  2  0
 21 22  1  0
 22 23  2  0
 23 24  1  0
 24 25  2  0
 24 26  1  0
 26 27  1  0
 26 28  2  0
 28 29  1  0
 28 30  1  0
 30 31  1  0
 18 32  2  0
 13 33  1  0
 33 34  2  0
 34 35  1  0
  9  4  1  0
 34 11  1  0
 32 14  1  0
 25 20  1  0
 30 23  1  0
M  END
>  <Compound_ID>  (70) 
CHEMBL3657554

>  <Molecule Name>  (70) 
nan

>  <Molecular Weight>  (70) 
496.02

>  <AlogP>  (70) 
3.75

>  <Smiles>  (70) 
COC[C@@H]1C[C@@H](O)CN1Cc1cn(-c2ccnc(Nc3ccc4c(c3)c(Cl)c(C)n4C)n2)nc1C

>  <Standard Type>  (70) 
IC50

>  <Standard Relation>  (70) 
'='

>  <Standard Units>  (70) 
nM

>  <Standard Value>  (70) 
6.6

>  <Assay ChEMBL ID>  (70) 
CHEMBL3705866

>  <Assay Description>  (70) 
Kinase Inhibition Assay: Compounds of the invention were initially diluted to 10 mM in 100% DMSO (CALBIOCHEM) for storage and made into kinase buffer solution to create a compound concentration ranging from 1 uM and 10 uM. Serial dilutions of compounds of the invention were dispensed into a 96-well plate (GREINER BIOSCIENCES) at 6 uL each. Purified full-length human SYK, and KDR (CARNA BIOSCIENCES) were diluted in kinase buffer and added to the compound solutions and pre-incubated for 30 minutes at room temperature. Next, ATP (TEKNOVA) of Km (15 uM) and substrate solution (suggested manufacture substrates of PerkinElmer, for example, Ulight-TK peptide for SYK and Ulight-JAK1 for KDR (PERKINELMER)) was added (12 uL each) to the wells containing the compound solution and enzyme. The reaction mixture was incubated for 1 hour. Following the incubation, the stop solution made with EDTA, water, and Lance detection buffer (PERKINELMER) was added (12 uL each) to stop phosphorylation.

>  <BAO Format ID>  (70) 
BAO_0000357

>  <BAO Label>  (70) 
single protein format

>  <Assay Organism>  (70) 
Homo sapiens

>  <Target ChEMBL ID>  (70) 
CHEMBL2599

>  <Target Name>  (70) 
Tyrosine-protein kinase SYK

>  <Target Organism>  (70) 
Homo sapiens

>  <Target Type>  (70) 
SINGLE PROTEIN

>  <Document ChEMBL ID>  (70) 
CHEMBL3638941

>  <Source Description>  (70) 
BindingDB Database

>  <Document Journal>  (70) 
nan

>  <Document Year>  (70) 
2014.0

>  <Active>  (70) 
1.0

>  <bits>  (70) 
<rdkit.DataStructs.cDataStructs.ExplicitBitVect object at 0x00000193F34019A0>

>  <Group>  (70) 
G2

$$$$

     RDKit          2D

 28 31  0  0  0  0  0  0  0  0999 V2000
    5.0260   -1.2990    0.0000 C   0  0  0  0  0  0  0  0  0  0  0  0
    3.5260   -1.2990    0.0000 N   0  0  0  0  0  0  0  0  0  0  0  0
    2.7760    0.0000    0.0000 C   0  0  0  0  0  0  0  0  0  0  0  0
    3.5260    1.2990    0.0000 O   0  0  0  0  0  0  0  0  0  0  0  0
    1.2760    0.0000    0.0000 C   0  0  0  0  0  0  0  0  0  0  0  0
    0.3943    1.2135    0.0000 C   0  0  0  0  0  0  0  0  0  0  0  0
   -1.0323    0.7500    0.0000 C   0  0  0  0  0  0  0  0  0  0  0  0
   -2.3313    1.5000    0.0000 C   0  0  0  0  0  0  0  0  0  0  0  0
   -3.6304    0.7500    0.0000 C   0  0  0  0  0  0  0  0  0  0  0  0
   -4.9294    1.5000    0.0000 N   0  0  0  0  0  0  0  0  0  0  0  0
   -4.9294    3.0000    0.0000 C   0  0  0  0  0  0  0  0  0  0  0  0
   -3.6304    3.7500    0.0000 N   0  0  0  0  0  0  0  0  0  0  0  0
   -3.6304    5.2500    0.0000 C   0  0  0  0  0  0  0  0  0  0  0  0
   -4.9294    6.0000    0.0000 C   0  0  0  0  0  0  0  0  0  0  0  0
   -6.2284    5.2500    0.0000 C   0  0  0  0  0  0  0  0  0  0  0  0
   -7.5275    6.0000    0.0000 C   0  0  0  0  0  0  0  0  0  0  0  0
   -8.8978    5.3899    0.0000 C   0  0  0  0  0  0  0  0  0  0  0  0
   -9.9015    6.5046    0.0000 N   0  0  0  0  0  0  0  0  0  0  0  0
  -11.3933    6.3478    0.0000 C   0  0  0  0  0  0  0  0  0  0  0  0
   -9.1515    7.8037    0.0000 C   0  0  0  0  0  0  0  0  0  0  0  0
   -7.6843    7.4918    0.0000 N   0  0  0  0  0  0  0  0  0  0  0  0
   -6.2284    3.7500    0.0000 N   0  0  0  0  0  0  0  0  0  0  0  0
   -3.6304   -0.7500    0.0000 C   0  0  0  0  0  0  0  0  0  0  0  0
   -2.3313   -1.5000    0.0000 C   0  0  0  0  0  0  0  0  0  0  0  0
   -2.3313   -3.0000    0.0000 O   0  0  0  0  0  0  0  0  0  0  0  0
   -3.6304   -3.7500    0.0000 C   0  0  0  0  0  0  0  0  0  0  0  0
   -1.0323   -0.7500    0.0000 C   0  0  0  0  0  0  0  0  0  0  0  0
    0.3943   -1.2135    0.0000 N   0  0  0  0  0  0  0  0  0  0  0  0
  1  2  1  0
  2  3  1  0
  3  4  2  0
  3  5  1  0
  5  6  2  0
  6  7  1  0
  7  8  2  0
  8  9  1  0
  9 10  1  0
 10 11  1  0
 11 12  2  0
 12 13  1  0
 13 14  2  0
 14 15  1  0
 15 16  1  0
 16 17  2  0
 17 18  1  0
 18 19  1  0
 18 20  1  0
 20 21  2  0
 15 22  2  0
  9 23  2  0
 23 24  1  0
 24 25  1  0
 25 26  1  0
 24 27  2  0
 27 28  1  0
 28  5  1  0
 27  7  1  0
 22 11  1  0
 21 16  1  0
M  END
>  <Compound_ID>  (71) 
CHEMBL3664150

>  <Molecule Name>  (71) 
nan

>  <Molecular Weight>  (71) 
377.41

>  <AlogP>  (71) 
2.47

>  <Smiles>  (71) 
CNC(=O)c1cc2cc(Nc3nccc(-c4cn(C)cn4)n3)cc(OC)c2[nH]1

>  <Standard Type>  (71) 
IC50

>  <Standard Relation>  (71) 
'='

>  <Standard Units>  (71) 
nM

>  <Standard Value>  (71) 
7.1

>  <Assay ChEMBL ID>  (71) 
CHEMBL3705905

>  <Assay Description>  (71) 
In Vitro Kinase Assay: Recombinant human Syk (amino acids 342-635) was expressed as a fusion protein with an N-terminal GST tag, affinity-purified and deep-frozen at a concentration of approx. 50-100 uM in test buffer (25 mM HEPES pH7.5; 25 mM MgCl2; 5 mM MnCl2; 50 mM KCl; 0.2% BSA; 0.01% CHAPS; 100 uM Na3VO4; 0.5 mM DTT) and 10% glycerol at -80 C. until use.The catalytic activity of the GST-Syk kinase fusion protein was determined using the Kinase Glo Luminescence Kinase test (Promega; V6712). In this homogeneous test the amount of ATP remaining after the kinase reaction is quantified by a luciferin-luciferase reaction using luminescence. The luminescence signal obtained correlates with the amount of ATP still present and thus correlates inversely with the activity of the protein kinase. Method:The test compounds were dissolved in 100% DMSO at a concentration of 10 mM and diluted in DMSO to a concentration of 1 mM. All further dilutions of the substances were carried out with 7.5% DMSO.

>  <BAO Format ID>  (71) 
BAO_0000357

>  <BAO Label>  (71) 
single protein format

>  <Assay Organism>  (71) 
Homo sapiens

>  <Target ChEMBL ID>  (71) 
CHEMBL2599

>  <Target Name>  (71) 
Tyrosine-protein kinase SYK

>  <Target Organism>  (71) 
Homo sapiens

>  <Target Type>  (71) 
SINGLE PROTEIN

>  <Document ChEMBL ID>  (71) 
CHEMBL3638603

>  <Source Description>  (71) 
BindingDB Database

>  <Document Journal>  (71) 
nan

>  <Document Year>  (71) 
2015.0

>  <Active>  (71) 
1.0

>  <bits>  (71) 
<rdkit.DataStructs.cDataStructs.ExplicitBitVect object at 0x00000193F3401A80>

>  <Group>  (71) 
G2

$$$$

     RDKit          2D

 36 39  0  0  0  0  0  0  0  0999 V2000
    6.0000   -2.5981    0.0000 C   0  0  0  0  0  0  0  0  0  0  0  0
    5.2500   -1.2990    0.0000 C   0  0  0  0  0  0  0  0  0  0  0  0
    3.7500   -1.2990    0.0000 O   0  0  0  0  0  0  0  0  0  0  0  0
    3.0000    0.0000    0.0000 C   0  0  0  0  0  0  0  0  0  0  0  0
    3.7500    1.2990    0.0000 O   0  0  0  0  0  0  0  0  0  0  0  0
    1.5000    0.0000    0.0000 C   0  0  0  0  0  0  0  0  0  0  0  0
    0.7500   -1.2990    0.0000 C   0  0  0  0  0  0  0  0  0  0  0  0
   -0.7500   -1.2990    0.0000 C   0  0  0  0  0  0  0  0  0  0  0  0
   -1.5000    0.0000    0.0000 C   0  0  0  0  0  0  0  0  0  0  0  0
   -2.6491    0.9642    0.0000 O   0  0  0  0  0  0  0  0  0  0  0  0
   -2.6491   -0.9642    0.0000 C   0  0  0  0  0  0  0  0  0  0  0  0
   -4.0586   -0.4512    0.0000 C   0  0  0  0  0  0  0  0  0  0  0  0
   -5.2077   -1.4153    0.0000 C   0  0  0  0  0  0  0  0  0  0  0  0
   -4.9472   -2.8925    0.0000 C   0  0  0  0  0  0  0  0  0  0  0  0
   -6.0963   -3.8567    0.0000 C   0  0  0  0  0  0  0  0  0  0  0  0
   -7.5058   -3.3437    0.0000 C   0  0  0  0  0  0  0  0  0  0  0  0
   -8.6549   -4.3079    0.0000 C   0  0  0  0  0  0  0  0  0  0  0  0
  -10.0644   -3.7948    0.0000 C   0  0  0  0  0  0  0  0  0  0  0  0
   -8.3944   -5.7851    0.0000 C   0  0  0  0  0  0  0  0  0  0  0  0
   -6.9849   -6.2981    0.0000 C   0  0  0  0  0  0  0  0  0  0  0  0
   -6.7244   -7.7753    0.0000 N   0  0  0  0  0  0  0  0  0  0  0  0
   -7.8735   -8.7395    0.0000 C   0  0  0  0  0  0  0  0  0  0  0  0
   -9.2830   -8.2265    0.0000 C   0  0  0  0  0  0  0  0  0  0  0  0
  -10.4321   -9.1907    0.0000 C   0  0  0  0  0  0  0  0  0  0  0  0
  -11.8416   -8.6776    0.0000 C   0  0  0  0  0  0  0  0  0  0  0  0
  -13.2511   -8.1646    0.0000 F   0  0  0  0  0  0  0  0  0  0  0  0
  -11.3286   -7.2681    0.0000 F   0  0  0  0  0  0  0  0  0  0  0  0
  -12.3546  -10.0872    0.0000 F   0  0  0  0  0  0  0  0  0  0  0  0
  -10.1716  -10.6679    0.0000 C   0  0  0  0  0  0  0  0  0  0  0  0
   -8.7620  -11.1809    0.0000 C   0  0  0  0  0  0  0  0  0  0  0  0
   -7.6130  -10.2167    0.0000 N   0  0  0  0  0  0  0  0  0  0  0  0
   -5.8358   -5.3339    0.0000 N   0  0  0  0  0  0  0  0  0  0  0  0
   -3.5377   -3.4056    0.0000 C   0  0  0  0  0  0  0  0  0  0  0  0
   -2.3886   -2.4414    0.0000 N   0  0  0  0  0  0  0  0  0  0  0  0
   -0.7500    1.2990    0.0000 C   0  0  0  0  0  0  0  0  0  0  0  0
    0.7500    1.2990    0.0000 C   0  0  0  0  0  0  0  0  0  0  0  0
  1  2  1  0
  2  3  1  0
  3  4  1  0
  4  5  2  0
  4  6  1  0
  6  7  1  0
  7  8  1  0
  8  9  1  0
  9 10  1  0
  9 11  1  0
 11 12  2  0
 12 13  1  0
 13 14  2  0
 14 15  1  0
 15 16  2  0
 16 17  1  0
 17 18  1  0
 17 19  2  0
 19 20  1  0
 20 21  1  0
 21 22  1  0
 22 23  2  0
 23 24  1  0
 24 25  1  0
 25 26  1  0
 25 27  1  0
 25 28  1  0
 24 29  2  0
 29 30  1  0
 30 31  2  0
 20 32  2  0
 14 33  1  0
 33 34  2  0
  9 35  1  0
 35 36  1  0
 36  6  1  0
 34 11  1  0
 32 15  1  0
 31 22  1  0
M  END
>  <Compound_ID>  (72) 
CHEMBL3901613

>  <Molecule Name>  (72) 
nan

>  <Molecular Weight>  (72) 
500.52

>  <AlogP>  (72) 
5.55

>  <Smiles>  (72) 
CCOC(=O)C1CCC(O)(c2ccc(-c3cc(C)cc(Nc4cc(C(F)(F)F)ccn4)n3)cn2)CC1

>  <Standard Type>  (72) 
IC50

>  <Standard Relation>  (72) 
'='

>  <Standard Units>  (72) 
nM

>  <Standard Value>  (72) 
45.0

>  <Assay ChEMBL ID>  (72) 
CHEMBL3887083

>  <Assay Description>  (72) 
Homogeneous Time-Resolved Fluorescence (HTRF) Assay: A recombinant GST-hSyk fusion protein was used to measure potency of compounds to inhibit human Syk activity. The recombinant human GST-Syk (Carna Biosciences #08-176) (5 pM final concentration) was incubated with various concentrations of the inhibitor diluted in DMSO (0.1% final concentration) for 10 minutes at room temperature in 15 mM Tris-HCl (pH 7.5), 0.01% tween 20, 2 mM DTT in 384 well plate format. To initiate the reaction the biotinylated substrate peptide (250 nM final concentration) that contains the phosphorylation site for Syk was added with magnesium (5 mM final concentration) and ATP (25 uM final concentration). Final volume of the reaction was 10 uL. Phosphorylation of the peptide was allowed to proceed for 45x at room temperature. To quench the reaction and detect the phosphorylated product, 2 nM of a Europium-anti-phosphotyrosine antibody (Perkin Elmer #AD0161) and 70 nM SA-APC (Perkin-Elmer #CR130-100) were added together in 15 mM Tris pH 7.5.

>  <BAO Format ID>  (72) 
BAO_0000357

>  <BAO Label>  (72) 
single protein format

>  <Assay Organism>  (72) 
Homo sapiens

>  <Target ChEMBL ID>  (72) 
CHEMBL2599

>  <Target Name>  (72) 
Tyrosine-protein kinase SYK

>  <Target Organism>  (72) 
Homo sapiens

>  <Target Type>  (72) 
SINGLE PROTEIN

>  <Document ChEMBL ID>  (72) 
CHEMBL3886158

>  <Source Description>  (72) 
BindingDB Database

>  <Document Journal>  (72) 
nan

>  <Document Year>  (72) 
2015.0

>  <Active>  (72) 
1.0

>  <bits>  (72) 
<rdkit.DataStructs.cDataStructs.ExplicitBitVect object at 0x00000193F34029D0>

>  <Group>  (72) 
G2

$$$$

     RDKit          2D

 30 33  0  0  0  0  0  0  0  0999 V2000
   -4.6904   -6.5871    0.0000 C   0  0  0  0  0  0  0  0  0  0  0  0
   -4.3786   -5.1199    0.0000 O   0  0  0  0  0  0  0  0  0  0  0  0
   -2.9520   -4.6564    0.0000 C   0  0  0  0  0  0  0  0  0  0  0  0
   -1.8373   -5.6601    0.0000 O   0  0  0  0  0  0  0  0  0  0  0  0
   -2.6401   -3.1891    0.0000 C   0  0  0  0  0  0  0  0  0  0  0  0
   -1.2135   -2.7256    0.0000 N   0  0  0  0  0  0  0  0  0  0  0  0
   -0.0000   -3.6073    0.0000 N   0  0  0  0  0  0  0  0  0  0  0  0
    1.2135   -2.7256    0.0000 C   0  0  0  0  0  0  0  0  0  0  0  0
    0.7500   -1.2990    0.0000 C   0  0  0  0  0  0  0  0  0  0  0  0
    1.5000    0.0000    0.0000 C   0  0  0  0  0  0  0  0  0  0  0  0
    0.7500    1.2990    0.0000 C   0  0  0  0  0  0  0  0  0  0  0  0
    1.5000    2.5981    0.0000 N   0  0  0  0  0  0  0  0  0  0  0  0
    3.0000    2.5981    0.0000 C   0  0  0  0  0  0  0  0  0  0  0  0
    3.7500    1.2990    0.0000 N   0  0  0  0  0  0  0  0  0  0  0  0
    5.2500    1.2990    0.0000 C   0  0  0  0  0  0  0  0  0  0  0  0
    6.0000    2.5981    0.0000 C   0  0  0  0  0  0  0  0  0  0  0  0
    7.5000    2.5981    0.0000 F   0  0  0  0  0  0  0  0  0  0  0  0
    5.2500    3.8971    0.0000 C   0  0  0  0  0  0  0  0  0  0  0  0
    6.0000    5.1962    0.0000 N   0  0  0  0  0  0  0  0  0  0  0  0
    5.2500    6.4952    0.0000 C   0  0  0  0  0  0  0  0  0  0  0  0
    6.0000    7.7942    0.0000 C   0  0  0  0  0  0  0  0  0  0  0  0
    5.2500    9.0933    0.0000 C   0  0  0  0  0  0  0  0  0  0  0  0
    3.7500    9.0933    0.0000 C   0  0  0  0  0  0  0  0  0  0  0  0
    3.0000    7.7942    0.0000 C   0  0  0  0  0  0  0  0  0  0  0  0
    1.5000    7.7942    0.0000 O   0  0  0  0  0  0  0  0  0  0  0  0
    3.7500    6.4952    0.0000 C   0  0  0  0  0  0  0  0  0  0  0  0
    3.7500    3.8971    0.0000 N   0  0  0  0  0  0  0  0  0  0  0  0
   -0.7500    1.2990    0.0000 C   0  0  0  0  0  0  0  0  0  0  0  0
   -1.5000    0.0000    0.0000 C   0  0  0  0  0  0  0  0  0  0  0  0
   -0.7500   -1.2990    0.0000 C   0  0  0  0  0  0  0  0  0  0  0  0
  1  2  1  0
  2  3  1  0
  3  4  2  0
  3  5  1  0
  5  6  1  0
  6  7  1  0
  7  8  2  0
  8  9  1  0
  9 10  2  0
 10 11  1  0
 11 12  1  0
 12 13  1  0
 13 14  2  0
 14 15  1  0
 15 16  2  0
 16 17  1  0
 16 18  1  0
 18 19  1  0
 19 20  1  0
 20 21  2  0
 21 22  1  0
 22 23  2  0
 23 24  1  0
 24 25  1  0
 24 26  2  0
 18 27  2  0
 11 28  2  0
 28 29  1  0
 29 30  2  0
 30  6  1  0
 30  9  1  0
 27 13  1  0
 26 20  1  0
M  END
>  <Compound_ID>  (73) 
CHEMBL3890717

>  <Molecule Name>  (73) 
nan

>  <Molecular Weight>  (73) 
408.39

>  <AlogP>  (73) 
3.33

>  <Smiles>  (73) 
COC(=O)Cn1ncc2cc(Nc3ncc(F)c(Nc4cccc(O)c4)n3)ccc21

>  <Standard Type>  (73) 
IC50

>  <Standard Relation>  (73) 
'='

>  <Standard Units>  (73) 
nM

>  <Standard Value>  (73) 
45.5

>  <Assay ChEMBL ID>  (73) 
CHEMBL3889292

>  <Assay Description>  (73) 
Biochemical Assay: Several 2,4-pyrimidinediamine compounds were tested for the ability to inhibit Syk kinase catalyzed phosphorylation of a peptide substrate in a biochemical fluorescenced polarization assay with isolated Syk kinase. In this experiment, Compounds were diluted to 1% DMSO in kinase buffer (20 mM HEPES, pH 7.4, 5 mM MgCl2, 2 mM MnCl2, 1 mM DTT, 0.1 mg/mL acetylated Bovine Gamma Globulin). Compound in 1% DMSO (0.2% DMSO final) was mixed with ATP/substrate solution at room temperature. Syk kinase (Upstate, Lake Placid N.Y.) was added to a final reaction volume of 20 uL, and the reaction was incubated for 30 minutes at room temperature. Final enzyme reaction conditions were 20 mM HEPES, pH 7.4, 5 mM MgCl2, 2 mM MnCl2, 1 mM DTT, 0.1 mg/mL acetylated Bovine Gamma Globulin, 0.125 ng Syk, 4 uM ATP, 2.5 uM peptide substrate (biotin-EQEDEPEGDYEEVLE-CONH2, SynPep Corporation). EDTA (10 mM final)/anti-phosphotyrosine antibody (1x final)/fluorescent phosphopeptide tracer (0.5x final) was added in FP Dilution Buffer to stop the reaction for a total volume of 40 uL according to manufacturer's instructions (PanVera Corporation) The plate was incubated for 30 minutes in the dark at room temperature. Plates were read on a Polarion fluorescence polarization plate reader (Tecan). Data were converted to amount of phosphopeptide present using a calibration curve generated by competition with the phosphopeptide competitor provided in the Tyrosine Kinase Assay Kit, Green (PanVera Corporation).

>  <BAO Format ID>  (73) 
BAO_0000357

>  <BAO Label>  (73) 
single protein format

>  <Assay Organism>  (73) 
Homo sapiens

>  <Target ChEMBL ID>  (73) 
CHEMBL2599

>  <Target Name>  (73) 
Tyrosine-protein kinase SYK

>  <Target Organism>  (73) 
Homo sapiens

>  <Target Type>  (73) 
SINGLE PROTEIN

>  <Document ChEMBL ID>  (73) 
CHEMBL3887020

>  <Source Description>  (73) 
BindingDB Database

>  <Document Journal>  (73) 
nan

>  <Document Year>  (73) 
2016.0

>  <Active>  (73) 
1.0

>  <bits>  (73) 
<rdkit.DataStructs.cDataStructs.ExplicitBitVect object at 0x00000193F3402650>

>  <Group>  (73) 
G2

$$$$

     RDKit          2D

 50 54  0  0  0  0  0  0  0  0999 V2000
   -8.2500   -9.0933    0.0000 C   0  0  0  0  0  0  0  0  0  0  0  0
   -7.5000  -10.3923    0.0000 O   0  0  0  0  0  0  0  0  0  0  0  0
   -6.0000  -10.3923    0.0000 C   0  0  0  0  0  0  0  0  0  0  0  0
   -5.2500   -9.0933    0.0000 C   0  0  0  0  0  0  0  0  0  0  0  0
   -3.7500   -9.0933    0.0000 C   0  0  0  0  0  0  0  0  0  0  0  0
   -3.0000   -7.7942    0.0000 N   0  0  0  0  0  0  0  0  0  0  0  0
   -3.7500   -6.4952    0.0000 C   0  0  0  0  0  0  0  0  0  0  0  0
   -3.0000   -5.1962    0.0000 C   0  0  0  0  0  0  0  0  0  0  0  0
   -3.7500   -3.8971    0.0000 C   0  0  0  0  0  0  0  0  0  0  0  0
   -3.0000   -2.5981    0.0000 O   0  0  0  0  0  0  0  0  0  0  0  0
   -1.5000   -2.5981    0.0000 C   0  0  0  0  0  0  0  0  0  0  0  0
   -0.7500   -3.8971    0.0000 C   0  0  0  0  0  0  0  0  0  0  0  0
    0.7500   -3.8971    0.0000 C   0  0  0  0  0  0  0  0  0  0  0  0
    1.5000   -2.5981    0.0000 C   0  0  0  0  0  0  0  0  0  0  0  0
    3.0000   -2.5981    0.0000 N   0  0  0  0  0  0  0  0  0  0  0  0
    3.7500   -3.8971    0.0000 C   0  0  0  0  0  0  0  0  0  0  0  0
    3.0000   -5.1962    0.0000 O   0  0  0  0  0  0  0  0  0  0  0  0
    5.2500   -3.8971    0.0000 N   0  0  0  0  0  0  0  0  0  0  0  0
    6.0000   -5.1962    0.0000 C   0  0  0  0  0  0  0  0  0  0  0  0
    5.2500   -6.4952    0.0000 C   0  0  0  0  0  0  0  0  0  0  0  0
    6.0000   -7.7942    0.0000 C   0  0  0  0  0  0  0  0  0  0  0  0
    5.2500   -9.0933    0.0000 C   0  0  0  0  0  0  0  0  0  0  0  0
    3.9510   -8.3433    0.0000 C   0  0  0  0  0  0  0  0  0  0  0  0
    6.5490   -9.8433    0.0000 C   0  0  0  0  0  0  0  0  0  0  0  0
    4.5000  -10.3923    0.0000 C   0  0  0  0  0  0  0  0  0  0  0  0
    7.5000   -7.7942    0.0000 C   0  0  0  0  0  0  0  0  0  0  0  0
    8.2500   -6.4952    0.0000 C   0  0  0  0  0  0  0  0  0  0  0  0
    9.7500   -6.4952    0.0000 N   0  0  0  0  0  0  0  0  0  0  0  0
   10.5000   -7.7942    0.0000 S   0  0  0  0  0  0  0  0  0  0  0  0
   11.2500   -9.0933    0.0000 C   0  0  0  0  0  0  0  0  0  0  0  0
    9.2010   -8.5442    0.0000 O   0  0  0  0  0  0  0  0  0  0  0  0
   11.7990   -7.0442    0.0000 O   0  0  0  0  0  0  0  0  0  0  0  0
    7.5000   -5.1962    0.0000 C   0  0  0  0  0  0  0  0  0  0  0  0
    8.2500   -3.8971    0.0000 O   0  0  0  0  0  0  0  0  0  0  0  0
    9.7500   -3.8971    0.0000 C   0  0  0  0  0  0  0  0  0  0  0  0
    0.7500   -1.2990    0.0000 C   0  0  0  0  0  0  0  0  0  0  0  0
    1.5000    0.0000    0.0000 C   0  0  0  0  0  0  0  0  0  0  0  0
    0.7500    1.2990    0.0000 C   0  0  0  0  0  0  0  0  0  0  0  0
   -0.7500    1.2990    0.0000 C   0  0  0  0  0  0  0  0  0  0  0  0
   -1.5000    0.0000    0.0000 C   0  0  0  0  0  0  0  0  0  0  0  0
   -0.7500   -1.2990    0.0000 C   0  0  0  0  0  0  0  0  0  0  0  0
   -5.2500   -3.8971    0.0000 C   0  0  0  0  0  0  0  0  0  0  0  0
   -6.0000   -5.1962    0.0000 C   0  0  0  0  0  0  0  0  0  0  0  0
   -5.2500   -6.4952    0.0000 N   0  0  0  0  0  0  0  0  0  0  0  0
   -3.0000  -10.3923    0.0000 C   0  0  0  0  0  0  0  0  0  0  0  0
   -3.7500  -11.6913    0.0000 C   0  0  0  0  0  0  0  0  0  0  0  0
   -5.2500  -11.6913    0.0000 C   0  0  0  0  0  0  0  0  0  0  0  0
   -6.0000  -12.9904    0.0000 C   0  0  0  0  0  0  0  0  0  0  0  0
   -7.5000  -12.9904    0.0000 O   0  0  0  0  0  0  0  0  0  0  0  0
   -5.2500  -14.2894    0.0000 O   0  0  0  0  0  0  0  0  0  0  0  0
  1  2  1  0
  2  3  1  0
  3  4  2  0
  4  5  1  0
  5  6  1  0
  6  7  1  0
  7  8  2  0
  8  9  1  0
  9 10  1  0
 10 11  1  0
 11 12  2  0
 12 13  1  0
 13 14  2  0
 14 15  1  0
 15 16  1  0
 16 17  2  0
 16 18  1  0
 18 19  1  0
 19 20  2  0
 20 21  1  0
 21 22  1  0
 22 23  1  0
 22 24  1  0
 22 25  1  0
 21 26  2  0
 26 27  1  0
 27 28  1  0
 28 29  1  0
 29 30  1  0
 29 31  2  0
 29 32  2  0
 27 33  2  0
 33 34  1  0
 34 35  1  0
 14 36  1  0
 36 37  2  0
 37 38  1  0
 38 39  2  0
 39 40  1  0
 40 41  2  0
  9 42  2  0
 42 43  1  0
 43 44  2  0
  5 45  2  0
 45 46  1  0
 46 47  2  0
 47 48  1  0
 48 49  2  0
 48 50  1  0
 47  3  1  0
 44  7  1  0
 41 11  1  0
 33 19  1  0
 41 36  1  0
M  END
>  <Compound_ID>  (74) 
CHEMBL3915286

>  <Molecule Name>  (74) 
nan

>  <Molecular Weight>  (74) 
699.79

>  <AlogP>  (74) 
7.80

>  <Smiles>  (74) 
COc1cc(Nc2cc(Oc3ccc(NC(=O)Nc4cc(C(C)(C)C)cc(NS(C)(=O)=O)c4OC)c4ccccc34)ccn2)ccc1C(=O)O

>  <Standard Type>  (74) 
IC50

>  <Standard Relation>  (74) 
'='

>  <Standard Units>  (74) 
nM

>  <Standard Value>  (74) 
5.0

>  <Assay ChEMBL ID>  (74) 
CHEMBL3889290

>  <Assay Description>  (74) 
Enzyme Inhibition Assay: The inhibitory activities of the compound of the invention against c-Src and Syk enzymes (Invitrogen), are evaluated in a similar fashion to that described hereinabove. The relevant enzyme (3000 ng/mL or 2000 ng/mL respectively, 2.5 μL) is incubated with the test compound (either 1 μg/mL, 0.1 μg/mL, 0.01 μg/mL, or 0.001 μg/mL, 2.5 μL each) for 2 hr at RT. The FRET peptides (8 μM, 2.5 μL), and appropriate ATP solutions (2.5 μL, 800 μM for c-Src, and 60 μM ATP for Syk) are then added to the enzymes/compound mixtures and the mixture incubated for 1 hr. Development reagent (protease, 5 μL) is added for 1 hr prior to detection in a fluorescence microplate reader (Varioskan® Flash, ThermoFisher Scientific).

>  <BAO Format ID>  (74) 
BAO_0000357

>  <BAO Label>  (74) 
single protein format

>  <Assay Organism>  (74) 
Homo sapiens

>  <Target ChEMBL ID>  (74) 
CHEMBL2599

>  <Target Name>  (74) 
Tyrosine-protein kinase SYK

>  <Target Organism>  (74) 
Homo sapiens

>  <Target Type>  (74) 
SINGLE PROTEIN

>  <Document ChEMBL ID>  (74) 
CHEMBL3887019

>  <Source Description>  (74) 
BindingDB Database

>  <Document Journal>  (74) 
nan

>  <Document Year>  (74) 
2016.0

>  <Active>  (74) 
1.0

>  <bits>  (74) 
<rdkit.DataStructs.cDataStructs.ExplicitBitVect object at 0x00000193F3402B90>

>  <Group>  (74) 
G2

$$$$

     RDKit          2D

 29 31  0  0  0  0  0  0  0  0999 V2000
    5.2500   -1.2990    0.0000 C   0  0  0  0  0  0  0  0  0  0  0  0
    3.7500   -1.2990    0.0000 C   0  0  0  0  0  0  0  0  0  0  0  0
    3.0000    0.0000    0.0000 C   0  0  0  0  0  0  0  0  0  0  0  0
    1.5000    0.0000    0.0000 C   0  0  0  0  0  0  0  0  0  0  0  0
    0.7500   -1.2990    0.0000 N   0  0  0  0  0  0  0  0  0  0  0  0
   -0.7500   -1.2990    0.0000 C   0  0  0  0  0  0  0  0  0  0  0  0
   -1.5000   -2.5981    0.0000 N   0  0  0  0  0  0  0  0  0  0  0  0
   -3.0000   -2.5981    0.0000 C   0  0  0  0  0  0  0  0  0  0  0  0
   -3.7500   -1.2990    0.0000 C   0  0  0  0  0  0  0  0  0  0  0  0
   -5.2500   -1.2990    0.0000 C   0  0  0  0  0  0  0  0  0  0  0  0
   -6.0000    0.0000    0.0000 N   0  0  0  0  0  0  0  0  0  0  0  0
   -5.2500    1.2990    0.0000 C   0  0  0  0  0  0  0  0  0  0  0  0
   -3.7500    1.2990    0.0000 C   0  0  0  0  0  0  0  0  0  0  0  0
   -3.0000    2.5981    0.0000 C   0  0  0  0  0  0  0  0  0  0  0  0
   -3.7500    3.8971    0.0000 C   0  0  0  0  0  0  0  0  0  0  0  0
   -5.2500    3.8971    0.0000 C   0  0  0  0  0  0  0  0  0  0  0  0
   -6.0000    2.5981    0.0000 C   0  0  0  0  0  0  0  0  0  0  0  0
   -7.5000    2.5981    0.0000 N   0  0  0  0  0  0  0  0  0  0  0  0
   -6.0000   -2.5981    0.0000 N   0  0  0  0  0  0  0  0  0  0  0  0
   -5.2500   -3.8971    0.0000 N   0  0  0  0  0  0  0  0  0  0  0  0
   -3.7500   -3.8971    0.0000 C   0  0  0  0  0  0  0  0  0  0  0  0
   -3.0000   -5.1962    0.0000 C   0  0  0  0  0  0  0  0  0  0  0  0
   -3.7500   -6.4952    0.0000 N   0  0  0  0  0  0  0  0  0  0  0  0
   -1.5000   -5.1962    0.0000 O   0  0  0  0  0  0  0  0  0  0  0  0
   -1.5000    0.0000    0.0000 C   0  0  0  0  0  0  0  0  0  0  0  0
   -0.7500    1.2990    0.0000 C   0  0  0  0  0  0  0  0  0  0  0  0
    0.7500    1.2990    0.0000 C   0  0  0  0  0  0  0  0  0  0  0  0
    1.5000    2.5981    0.0000 O   0  0  0  0  0  0  0  0  0  0  0  0
    0.7500    3.8971    0.0000 C   0  0  0  0  0  0  0  0  0  0  0  0
  1  2  1  0
  2  3  1  0
  3  4  1  0
  4  5  2  0
  5  6  1  0
  6  7  1  0
  7  8  1  0
  8  9  2  0
  9 10  1  0
 10 11  1  0
 12 11  1  1
 12 13  1  0
 13 14  1  0
 14 15  1  0
 15 16  1  0
 16 17  1  0
 17 18  1  1
 10 19  2  0
 19 20  1  0
 20 21  2  0
 21 22  1  0
 22 23  1  0
 22 24  2  0
  6 25  2  0
 25 26  1  0
 26 27  2  0
 27 28  1  0
 28 29  1  0
 27  4  1  0
 21  8  1  0
 17 12  1  0
M  END
>  <Compound_ID>  (75) 
CHEMBL3237574

>  <Molecule Name>  (75) 
nan

>  <Molecular Weight>  (75) 
399.5

>  <AlogP>  (75) 
2.36

>  <Smiles>  (75) 
CCCc1nc(Nc2cc(N[C@@H]3CCCC[C@@H]3N)nnc2C(N)=O)ccc1OC

>  <Standard Type>  (75) 
IC50

>  <Standard Relation>  (75) 
'='

>  <Standard Units>  (75) 
nM

>  <Standard Value>  (75) 
5.012

>  <Assay ChEMBL ID>  (75) 
CHEMBL3240906

>  <Assay Description>  (75) 
Inhibition of human SYK (360 to 635) using biotin-EPEGDYEEVLE as substrate preincubated for 10 mins followed by substrate/ATP/[33Pgamma]ATP addition measured after 15 mins by scintillation counting analysis

>  <BAO Format ID>  (75) 
BAO_0000357

>  <BAO Label>  (75) 
single protein format

>  <Assay Organism>  (75) 
Homo sapiens

>  <Target ChEMBL ID>  (75) 
CHEMBL2599

>  <Target Name>  (75) 
Tyrosine-protein kinase SYK

>  <Target Organism>  (75) 
Homo sapiens

>  <Target Type>  (75) 
SINGLE PROTEIN

>  <Document ChEMBL ID>  (75) 
CHEMBL3232975

>  <Source Description>  (75) 
Scientific Literature

>  <Document Journal>  (75) 
J Med Chem

>  <Document Year>  (75) 
2014.0

>  <Active>  (75) 
1.0

>  <bits>  (75) 
<rdkit.DataStructs.cDataStructs.ExplicitBitVect object at 0x00000193F34000B0>

>  <Group>  (75) 
G2

$$$$

     RDKit          2D

 25 26  0  0  0  0  0  0  0  0999 V2000
    3.7500   -1.2990    0.0000 C   0  0  0  0  0  0  0  0  0  0  0  0
    3.0000    0.0000    0.0000 O   0  0  0  0  0  0  0  0  0  0  0  0
    1.5000    0.0000    0.0000 C   0  0  0  0  0  0  0  0  0  0  0  0
    0.7500   -1.2990    0.0000 C   0  0  0  0  0  0  0  0  0  0  0  0
   -0.7500   -1.2990    0.0000 C   0  0  0  0  0  0  0  0  0  0  0  0
   -1.5000    0.0000    0.0000 C   0  0  0  0  0  0  0  0  0  0  0  0
   -3.0000    0.0000    0.0000 N   0  0  0  0  0  0  0  0  0  0  0  0
   -3.7500    1.2990    0.0000 C   0  0  0  0  0  0  0  0  0  0  0  0
   -3.0000    2.5981    0.0000 C   0  0  0  0  0  0  0  0  0  0  0  0
   -3.7500    3.8971    0.0000 C   0  0  0  0  0  0  0  0  0  0  0  0
   -3.0000    5.1962    0.0000 N   0  0  0  0  0  0  0  0  0  0  0  0
   -1.5000    5.1962    0.0000 C   0  0  0  0  0  0  0  0  0  0  0  0
   -0.7500    6.4952    0.0000 C   0  0  0  0  0  0  0  0  0  0  0  0
    0.7500    6.4952    0.0000 N   0  0  0  0  0  0  0  0  0  0  0  0
   -5.2500    3.8971    0.0000 N   0  0  0  0  0  0  0  0  0  0  0  0
   -6.0000    2.5981    0.0000 N   0  0  0  0  0  0  0  0  0  0  0  0
   -5.2500    1.2990    0.0000 C   0  0  0  0  0  0  0  0  0  0  0  0
   -6.0000    0.0000    0.0000 C   0  0  0  0  0  0  0  0  0  0  0  0
   -7.5000    0.0000    0.0000 N   0  0  0  0  0  0  0  0  0  0  0  0
   -5.2500   -1.2990    0.0000 O   0  0  0  0  0  0  0  0  0  0  0  0
   -0.7500    1.2990    0.0000 N   0  0  0  0  0  0  0  0  0  0  0  0
    0.7500    1.2990    0.0000 C   0  0  0  0  0  0  0  0  0  0  0  0
    1.5000    2.5981    0.0000 C   0  0  0  0  0  0  0  0  0  0  0  0
    3.0000    2.5981    0.0000 C   0  0  0  0  0  0  0  0  0  0  0  0
    0.7500    3.8971    0.0000 C   0  0  0  0  0  0  0  0  0  0  0  0
  1  2  1  0
  2  3  1  0
  3  4  2  0
  4  5  1  0
  5  6  2  0
  6  7  1  0
  7  8  1  0
  8  9  2  0
  9 10  1  0
 10 11  1  0
 11 12  1  0
 12 13  1  0
 13 14  1  0
 10 15  2  0
 15 16  1  0
 16 17  2  0
 17 18  1  0
 18 19  1  0
 18 20  2  0
  6 21  1  0
 21 22  2  0
 22 23  1  0
 23 24  1  0
 23 25  1  0
 22  3  1  0
 17  8  1  0
M  END
>  <Compound_ID>  (76) 
CHEMBL3237578

>  <Molecule Name>  (76) 
nan

>  <Molecular Weight>  (76) 
345.41

>  <AlogP>  (76) 
1.22

>  <Smiles>  (76) 
COc1ccc(Nc2cc(NCCN)nnc2C(N)=O)nc1C(C)C

>  <Standard Type>  (76) 
IC50

>  <Standard Relation>  (76) 
'='

>  <Standard Units>  (76) 
nM

>  <Standard Value>  (76) 
10.0

>  <Assay ChEMBL ID>  (76) 
CHEMBL3240906

>  <Assay Description>  (76) 
Inhibition of human SYK (360 to 635) using biotin-EPEGDYEEVLE as substrate preincubated for 10 mins followed by substrate/ATP/[33Pgamma]ATP addition measured after 15 mins by scintillation counting analysis

>  <BAO Format ID>  (76) 
BAO_0000357

>  <BAO Label>  (76) 
single protein format

>  <Assay Organism>  (76) 
Homo sapiens

>  <Target ChEMBL ID>  (76) 
CHEMBL2599

>  <Target Name>  (76) 
Tyrosine-protein kinase SYK

>  <Target Organism>  (76) 
Homo sapiens

>  <Target Type>  (76) 
SINGLE PROTEIN

>  <Document ChEMBL ID>  (76) 
CHEMBL3232975

>  <Source Description>  (76) 
Scientific Literature

>  <Document Journal>  (76) 
J Med Chem

>  <Document Year>  (76) 
2014.0

>  <Active>  (76) 
1.0

>  <bits>  (76) 
<rdkit.DataStructs.cDataStructs.ExplicitBitVect object at 0x00000193F3400430>

>  <Group>  (76) 
G2

$$$$

     RDKit          2D

 27 30  0  0  0  0  0  0  0  0999 V2000
    3.7500   -1.2990    0.0000 C   0  0  0  0  0  0  0  0  0  0  0  0
    3.0000    0.0000    0.0000 O   0  0  0  0  0  0  0  0  0  0  0  0
    1.5000    0.0000    0.0000 C   0  0  0  0  0  0  0  0  0  0  0  0
    0.7500   -1.2990    0.0000 C   0  0  0  0  0  0  0  0  0  0  0  0
   -0.7500   -1.2990    0.0000 C   0  0  0  0  0  0  0  0  0  0  0  0
   -1.5000    0.0000    0.0000 C   0  0  0  0  0  0  0  0  0  0  0  0
   -2.9672    0.3119    0.0000 C   0  0  0  0  0  0  0  0  0  0  0  0
   -3.1240    1.8037    0.0000 N   0  0  0  0  0  0  0  0  0  0  0  0
   -1.7537    2.4138    0.0000 N   0  0  0  0  0  0  0  0  0  0  0  0
   -1.4418    3.8810    0.0000 C   0  0  0  0  0  0  0  0  0  0  0  0
   -0.0152    4.3445    0.0000 C   0  0  0  0  0  0  0  0  0  0  0  0
    0.2966    5.8117    0.0000 N   0  0  0  0  0  0  0  0  0  0  0  0
   -0.8181    6.8154    0.0000 C   0  0  0  0  0  0  0  0  0  0  0  0
   -0.8181    8.3154    0.0000 N   0  0  0  0  0  0  0  0  0  0  0  0
   -2.2447    8.7789    0.0000 C   0  0  0  0  0  0  0  0  0  0  0  0
   -3.1264    7.5654    0.0000 C   0  0  0  0  0  0  0  0  0  0  0  0
   -4.6264    7.5654    0.0000 C   0  0  0  0  0  0  0  0  0  0  0  0
   -5.3764    6.2664    0.0000 O   0  0  0  0  0  0  0  0  0  0  0  0
   -5.3764    8.8645    0.0000 N   0  0  0  0  0  0  0  0  0  0  0  0
   -6.8764    8.8645    0.0000 C   0  0  0  0  0  0  0  0  0  0  0  0
   -6.8764   10.3645    0.0000 C   0  0  0  0  0  0  0  0  0  0  0  0
   -6.8764    7.3645    0.0000 C   0  0  0  0  0  0  0  0  0  0  0  0
   -8.3764    8.8645    0.0000 C   0  0  0  0  0  0  0  0  0  0  0  0
   -2.2447    6.3519    0.0000 C   0  0  0  0  0  0  0  0  0  0  0  0
   -2.5565    4.8847    0.0000 N   0  0  0  0  0  0  0  0  0  0  0  0
   -0.7500    1.2990    0.0000 C   0  0  0  0  0  0  0  0  0  0  0  0
    0.7500    1.2990    0.0000 C   0  0  0  0  0  0  0  0  0  0  0  0
  1  2  1  0
  2  3  1  0
  3  4  2  0
  4  5  1  0
  5  6  2  0
  6  7  1  0
  7  8  2  0
  8  9  1  0
  9 10  1  0
 10 11  2  0
 11 12  1  0
 12 13  2  0
 13 14  1  0
 14 15  1  0
 15 16  2  0
 16 17  1  0
 17 18  2  0
 17 19  1  0
 19 20  1  0
 20 21  1  0
 20 22  1  0
 20 23  1  0
 16 24  1  0
 24 25  2  0
  9 26  1  0
 26 27  2  0
 27  3  1  0
 26  6  1  0
 25 10  1  0
 24 13  1  0
M  END
>  <Compound_ID>  (77) 
CHEMBL2347997

>  <Molecule Name>  (77) 
nan

>  <Molecular Weight>  (77) 
364.41

>  <AlogP>  (77) 
2.83

>  <Smiles>  (77) 
COc1ccc2cnn(-c3cnc4[nH]cc(C(=O)NC(C)(C)C)c4n3)c2c1

>  <Standard Type>  (77) 
IC50

>  <Standard Relation>  (77) 
'='

>  <Standard Units>  (77) 
nM

>  <Standard Value>  (77) 
33.0

>  <Assay ChEMBL ID>  (77) 
CHEMBL2350855

>  <Assay Description>  (77) 
Inhibition of human recombinant truncated SYK (360 to 365 amino acid residues) using N-terminally biotinylated EPEGDYEEVLE peptide as substrate assessed as inhibition of [33P]-ATP incorporation incubated for 10 mins prior to substrate addition measured after 15 mins by scintillation counting

>  <BAO Format ID>  (77) 
BAO_0000357

>  <BAO Label>  (77) 
single protein format

>  <Assay Organism>  (77) 
Homo sapiens

>  <Target ChEMBL ID>  (77) 
CHEMBL2599

>  <Target Name>  (77) 
Tyrosine-protein kinase SYK

>  <Target Organism>  (77) 
Homo sapiens

>  <Target Type>  (77) 
SINGLE PROTEIN

>  <Document ChEMBL ID>  (77) 
CHEMBL2346624

>  <Source Description>  (77) 
Scientific Literature

>  <Document Journal>  (77) 
J Med Chem

>  <Document Year>  (77) 
2013.0

>  <Active>  (77) 
1.0

>  <bits>  (77) 
<rdkit.DataStructs.cDataStructs.ExplicitBitVect object at 0x00000193F3402420>

>  <Group>  (77) 
G2

$$$$

     RDKit          2D

 25 27  0  0  0  0  0  0  0  0999 V2000
    3.0000  -10.3923    0.0000 C   0  0  0  0  0  0  0  0  0  0  0  0
    3.7500   -9.0933    0.0000 N   0  0  0  0  0  0  0  0  0  0  0  0
    5.2500   -9.0933    0.0000 C   0  0  0  0  0  0  0  0  0  0  0  0
    3.0000   -7.7942    0.0000 C   0  0  0  0  0  0  0  0  0  0  0  0
    1.5000   -7.7942    0.0000 C   0  0  0  0  0  0  0  0  0  0  0  0
    0.7500   -6.4952    0.0000 C   0  0  0  0  0  0  0  0  0  0  0  0
    1.5000   -5.1962    0.0000 C   0  0  0  0  0  0  0  0  0  0  0  0
    0.7500   -3.8971    0.0000 C   0  0  0  0  0  0  0  0  0  0  0  0
    1.5000   -2.5981    0.0000 C   0  0  0  0  0  0  0  0  0  0  0  0
    0.7500   -1.2990    0.0000 C   0  0  0  0  0  0  0  0  0  0  0  0
    1.5000    0.0000    0.0000 N   0  0  0  0  0  0  0  0  0  0  0  0
    0.7500    1.2990    0.0000 C   0  0  0  0  0  0  0  0  0  0  0  0
   -0.7500    1.2990    0.0000 C   0  0  0  0  0  0  0  0  0  0  0  0
   -1.5000    0.0000    0.0000 C   0  0  0  0  0  0  0  0  0  0  0  0
   -0.7500   -1.2990    0.0000 C   0  0  0  0  0  0  0  0  0  0  0  0
   -1.5000   -2.5981    0.0000 C   0  0  0  0  0  0  0  0  0  0  0  0
   -3.0000   -2.5981    0.0000 N   0  0  0  0  0  0  0  0  0  0  0  0
   -3.7500   -3.8971    0.0000 C   0  0  0  0  0  0  0  0  0  0  0  0
   -5.2500   -3.8971    0.0000 C   0  0  0  0  0  0  0  0  0  0  0  0
   -6.0000   -2.5981    0.0000 O   0  0  0  0  0  0  0  0  0  0  0  0
   -6.0000   -5.1962    0.0000 C   0  0  0  0  0  0  0  0  0  0  0  0
   -7.5000   -5.1962    0.0000 N   0  0  0  0  0  0  0  0  0  0  0  0
   -0.7500   -3.8971    0.0000 N   0  0  0  0  0  0  0  0  0  0  0  0
    3.0000   -5.1962    0.0000 C   0  0  0  0  0  0  0  0  0  0  0  0
    3.7500   -6.4952    0.0000 C   0  0  0  0  0  0  0  0  0  0  0  0
  1  2  1  0
  2  3  1  0
  2  4  1  0
  4  5  2  0
  5  6  1  0
  6  7  2  0
  7  8  1  0
  8  9  2  0
  9 10  1  0
 10 11  2  0
 11 12  1  0
 12 13  2  0
 13 14  1  0
 14 15  2  0
 15 16  1  0
 16 17  1  0
 17 18  1  0
 18 19  1  0
 19 20  1  0
 19 21  1  0
 21 22  1  0
 16 23  2  0
  7 24  1  0
 24 25  2  0
 25  4  1  0
 23  8  1  0
 15 10  1  0
M  END
>  <Compound_ID>  (78) 
CHEMBL30708

>  <Molecule Name>  (78) 
nan

>  <Molecular Weight>  (78) 
337.43

>  <AlogP>  (78) 
2.09

>  <Smiles>  (78) 
CN(C)c1ccc(-c2cc3ncccc3c(NCC(O)CN)n2)cc1

>  <Standard Type>  (78) 
IC50

>  <Standard Relation>  (78) 
'='

>  <Standard Units>  (78) 
nM

>  <Standard Value>  (78) 
43.0

>  <Assay ChEMBL ID>  (78) 
CHEMBL1022010

>  <Assay Description>  (78) 
Inhibition of recombinant Syk

>  <BAO Format ID>  (78) 
BAO_0000357

>  <BAO Label>  (78) 
single protein format

>  <Assay Organism>  (78) 
None

>  <Target ChEMBL ID>  (78) 
CHEMBL2599

>  <Target Name>  (78) 
Tyrosine-protein kinase SYK

>  <Target Organism>  (78) 
Homo sapiens

>  <Target Type>  (78) 
SINGLE PROTEIN

>  <Document ChEMBL ID>  (78) 
CHEMBL1138583

>  <Source Description>  (78) 
Scientific Literature

>  <Document Journal>  (78) 
Bioorg Med Chem Lett

>  <Document Year>  (78) 
2009.0

>  <Active>  (78) 
1.0

>  <bits>  (78) 
<rdkit.DataStructs.cDataStructs.ExplicitBitVect object at 0x00000193F3402DC0>

>  <Group>  (78) 
G2

$$$$

     RDKit          2D

 28 31  0  0  0  0  0  0  0  0999 V2000
    3.0000    0.0000    0.0000 C   0  0  0  0  0  0  0  0  0  0  0  0
    1.5000    0.0000    0.0000 C   0  0  0  0  0  0  0  0  0  0  0  0
    0.7500   -1.2990    0.0000 C   0  0  0  0  0  0  0  0  0  0  0  0
   -0.7500   -1.2990    0.0000 C   0  0  0  0  0  0  0  0  0  0  0  0
   -1.5000   -2.5981    0.0000 N   0  0  0  0  0  0  0  0  0  0  0  0
   -3.0000   -2.5981    0.0000 C   0  0  0  0  0  0  0  0  0  0  0  0
   -3.7500   -1.2990    0.0000 N   0  0  0  0  0  0  0  0  0  0  0  0
   -5.2500   -1.2990    0.0000 C   0  0  0  0  0  0  0  0  0  0  0  0
   -6.0000   -2.5981    0.0000 C   0  0  0  0  0  0  0  0  0  0  0  0
   -5.2500   -3.8971    0.0000 C   0  0  0  0  0  0  0  0  0  0  0  0
   -6.0000   -5.1962    0.0000 C   0  0  0  0  0  0  0  0  0  0  0  0
   -6.7500   -6.4952    0.0000 F   0  0  0  0  0  0  0  0  0  0  0  0
   -7.2990   -4.4462    0.0000 F   0  0  0  0  0  0  0  0  0  0  0  0
   -4.7010   -5.9462    0.0000 F   0  0  0  0  0  0  0  0  0  0  0  0
   -3.7500   -3.8971    0.0000 N   0  0  0  0  0  0  0  0  0  0  0  0
   -1.5000    0.0000    0.0000 C   0  0  0  0  0  0  0  0  0  0  0  0
   -0.7500    1.2990    0.0000 C   0  0  0  0  0  0  0  0  0  0  0  0
   -1.5000    2.5981    0.0000 C   0  0  0  0  0  0  0  0  0  0  0  0
   -2.9918    2.7549    0.0000 C   0  0  0  0  0  0  0  0  0  0  0  0
   -3.3037    4.2221    0.0000 N   0  0  0  0  0  0  0  0  0  0  0  0
   -2.0046    4.9721    0.0000 C   0  0  0  0  0  0  0  0  0  0  0  0
   -1.8478    6.4639    0.0000 C   0  0  0  0  0  0  0  0  0  0  0  0
   -2.9625    7.4676    0.0000 C   0  0  0  0  0  0  0  0  0  0  0  0
   -2.3524    8.8379    0.0000 C   0  0  0  0  0  0  0  0  0  0  0  0
   -0.8606    8.6811    0.0000 N   0  0  0  0  0  0  0  0  0  0  0  0
   -0.5488    7.2139    0.0000 N   0  0  0  0  0  0  0  0  0  0  0  0
   -0.8899    3.9684    0.0000 S   0  0  0  0  0  0  0  0  0  0  0  0
    0.7500    1.2990    0.0000 C   0  0  0  0  0  0  0  0  0  0  0  0
  1  2  1  0
  2  3  2  0
  3  4  1  0
  4  5  1  0
  5  6  1  0
  6  7  2  0
  7  8  1  0
  8  9  2  0
  9 10  1  0
 10 11  1  0
 11 12  1  0
 11 13  1  0
 11 14  1  0
 10 15  2  0
  4 16  2  0
 16 17  1  0
 17 18  1  0
 18 19  2  0
 19 20  1  0
 20 21  2  0
 21 22  1  0
 22 23  1  0
 23 24  2  0
 24 25  1  0
 25 26  1  0
 21 27  1  0
 17 28  2  0
 28  2  1  0
 15  6  1  0
 27 18  1  0
 26 22  2  0
M  END
>  <Compound_ID>  (79) 
CHEMBL3685802

>  <Molecule Name>  (79) 
nan

>  <Molecular Weight>  (79) 
402.4

>  <AlogP>  (79) 
5.06

>  <Smiles>  (79) 
Cc1cc(Nc2nccc(C(F)(F)F)n2)cc(-c2cnc(-c3cc[nH]n3)s2)c1

>  <Standard Type>  (79) 
IC50

>  <Standard Relation>  (79) 
'='

>  <Standard Units>  (79) 
nM

>  <Standard Value>  (79) 
21.0

>  <Assay ChEMBL ID>  (79) 
CHEMBL3705225

>  <Assay Description>  (79) 
Homogeneous Time-Resolved Fluorescence (HTRF) Assay : A recombinant GST-hSYK fusion protein was used to measure potency of compounds to inhibit human SYK activity. The recombinant human GST-SYK (Carna Biosciences #08-176) (5 pM final concentration) was incubated with various concentrations of the inhibitor diluted in DMSO (0.1% final concentration) for 10 minutes at room temperature in 15 mM Tris-HCl (pH 7.5), 0.01% tween 20, 2 mM DTT in 384 well plate format. To initiate the reaction the biotinylated substrate peptide (250 nM final concentration) that contains the phosphorylation site for SYK was added with magnesium (5 mM final concentration) and ATP (25 μM final concentration). Final volume of the reaction was 10 μL. Phosphorylation of the peptide was allowed to proceed for 45′ at room temperature.

>  <BAO Format ID>  (79) 
BAO_0000357

>  <BAO Label>  (79) 
single protein format

>  <Assay Organism>  (79) 
Homo sapiens

>  <Target ChEMBL ID>  (79) 
CHEMBL2599

>  <Target Name>  (79) 
Tyrosine-protein kinase SYK

>  <Target Organism>  (79) 
Homo sapiens

>  <Target Type>  (79) 
SINGLE PROTEIN

>  <Document ChEMBL ID>  (79) 
CHEMBL3639355

>  <Source Description>  (79) 
BindingDB Database

>  <Document Journal>  (79) 
nan

>  <Document Year>  (79) 
2014.0

>  <Active>  (79) 
1.0

>  <bits>  (79) 
<rdkit.DataStructs.cDataStructs.ExplicitBitVect object at 0x00000193F3402490>

>  <Group>  (79) 
G2

$$$$

     RDKit          2D

 33 36  0  0  0  0  0  0  0  0999 V2000
    5.6278    8.0283    0.0000 C   0  0  0  0  0  0  0  0  0  0  0  0
    6.1126    6.6088    0.0000 C   0  0  0  0  0  0  0  0  0  0  0  0
    7.5844    6.3189    0.0000 C   0  0  0  0  0  0  0  0  0  0  0  0
    8.0692    4.8994    0.0000 C   0  0  0  0  0  0  0  0  0  0  0  0
    9.5409    4.6095    0.0000 N   0  0  0  0  0  0  0  0  0  0  0  0
   10.0257    3.1900    0.0000 C   0  0  0  0  0  0  0  0  0  0  0  0
    9.0388    2.0604    0.0000 N   0  0  0  0  0  0  0  0  0  0  0  0
    9.5236    0.6409    0.0000 C   0  0  0  0  0  0  0  0  0  0  0  0
   10.9953    0.3510    0.0000 C   0  0  0  0  0  0  0  0  0  0  0  0
   11.9823    1.4806    0.0000 C   0  0  0  0  0  0  0  0  0  0  0  0
   13.4540    1.1908    0.0000 C   0  0  0  0  0  0  0  0  0  0  0  0
   14.9257    0.9009    0.0000 F   0  0  0  0  0  0  0  0  0  0  0  0
   13.1641   -0.2810    0.0000 F   0  0  0  0  0  0  0  0  0  0  0  0
   13.7439    2.6625    0.0000 F   0  0  0  0  0  0  0  0  0  0  0  0
   11.4974    2.9001    0.0000 N   0  0  0  0  0  0  0  0  0  0  0  0
    7.0823    3.7698    0.0000 C   0  0  0  0  0  0  0  0  0  0  0  0
    5.6105    4.0597    0.0000 C   0  0  0  0  0  0  0  0  0  0  0  0
    4.6236    2.9301    0.0000 C   0  0  0  0  0  0  0  0  0  0  0  0
    4.9574    1.4677    0.0000 C   0  0  0  0  0  0  0  0  0  0  0  0
    3.6697    0.6983    0.0000 N   0  0  0  0  0  0  0  0  0  0  0  0
    2.5401    1.6852    0.0000 C   0  0  0  0  0  0  0  0  0  0  0  0
    1.0777    1.3515    0.0000 C   0  0  0  0  0  0  0  0  0  0  0  0
    1.0777    2.8515    0.0000 C   0  0  0  0  0  0  0  0  0  0  0  0
    2.3768    3.6015    0.0000 N   0  0  0  0  0  0  0  0  0  0  0  0
    1.7286    0.0000    0.0000 C   0  0  0  0  0  0  0  0  0  0  0  0
    1.0777   -1.3515    0.0000 C   0  0  0  0  0  0  0  0  0  0  0  0
   -0.3846   -1.6852    0.0000 N   0  0  0  0  0  0  0  0  0  0  0  0
   -1.5574   -0.7500    0.0000 C   0  0  0  0  0  0  0  0  0  0  0  0
   -2.9088   -1.4008    0.0000 O   0  0  0  0  0  0  0  0  0  0  0  0
   -1.5574    0.7500    0.0000 C   0  0  0  0  0  0  0  0  0  0  0  0
   -0.3846    1.6852    0.0000 C   0  0  0  0  0  0  0  0  0  0  0  0
    3.1297    3.0645    0.0000 S   0  0  0  0  0  0  0  0  0  0  0  0
    5.1257    5.4792    0.0000 C   0  0  0  0  0  0  0  0  0  0  0  0
  1  2  1  0
  2  3  2  0
  3  4  1  0
  4  5  1  0
  5  6  1  0
  6  7  2  0
  7  8  1  0
  8  9  2  0
  9 10  1  0
 10 11  1  0
 11 12  1  0
 11 13  1  0
 11 14  1  0
 10 15  2  0
  4 16  2  0
 16 17  1  0
 17 18  1  0
 18 19  2  0
 19 20  1  0
 20 21  2  0
 21 22  1  0
 22 23  1  0
 23 24  1  0
 22 25  1  0
 25 26  1  0
 26 27  1  0
 27 28  1  0
 28 29  2  0
 28 30  1  0
 30 31  1  0
 21 32  1  0
 17 33  2  0
 33  2  1  0
 15  6  1  0
 32 18  1  0
 31 22  1  0
M  END
>  <Compound_ID>  (80) 
CHEMBL3685828

>  <Molecule Name>  (80) 
nan

>  <Molecular Weight>  (80) 
476.53

>  <AlogP>  (80) 
4.17

>  <Smiles>  (80) 
Cc1cc(Nc2nccc(C(F)(F)F)n2)cc(-c2cnc(C3(CN)CCNC(=O)CC3)s2)c1

>  <Standard Type>  (80) 
IC50

>  <Standard Relation>  (80) 
'='

>  <Standard Units>  (80) 
nM

>  <Standard Value>  (80) 
50.0

>  <Assay ChEMBL ID>  (80) 
CHEMBL3705225

>  <Assay Description>  (80) 
Homogeneous Time-Resolved Fluorescence (HTRF) Assay : A recombinant GST-hSYK fusion protein was used to measure potency of compounds to inhibit human SYK activity. The recombinant human GST-SYK (Carna Biosciences #08-176) (5 pM final concentration) was incubated with various concentrations of the inhibitor diluted in DMSO (0.1% final concentration) for 10 minutes at room temperature in 15 mM Tris-HCl (pH 7.5), 0.01% tween 20, 2 mM DTT in 384 well plate format. To initiate the reaction the biotinylated substrate peptide (250 nM final concentration) that contains the phosphorylation site for SYK was added with magnesium (5 mM final concentration) and ATP (25 μM final concentration). Final volume of the reaction was 10 μL. Phosphorylation of the peptide was allowed to proceed for 45′ at room temperature.

>  <BAO Format ID>  (80) 
BAO_0000357

>  <BAO Label>  (80) 
single protein format

>  <Assay Organism>  (80) 
Homo sapiens

>  <Target ChEMBL ID>  (80) 
CHEMBL2599

>  <Target Name>  (80) 
Tyrosine-protein kinase SYK

>  <Target Organism>  (80) 
Homo sapiens

>  <Target Type>  (80) 
SINGLE PROTEIN

>  <Document ChEMBL ID>  (80) 
CHEMBL3639355

>  <Source Description>  (80) 
BindingDB Database

>  <Document Journal>  (80) 
nan

>  <Document Year>  (80) 
2014.0

>  <Active>  (80) 
1.0

>  <bits>  (80) 
<rdkit.DataStructs.cDataStructs.ExplicitBitVect object at 0x00000193F3403BC0>

>  <Group>  (80) 
G2

$$$$

     RDKit          2D

 31 35  0  0  0  0  0  0  0  0999 V2000
   -1.5000   -5.1073    0.0000 C   0  0  0  0  0  0  0  0  0  0  0  0
   -0.0000   -5.1073    0.0000 C   0  0  0  0  0  0  0  0  0  0  0  0
    1.5000   -5.1073    0.0000 C   0  0  0  0  0  0  0  0  0  0  0  0
   -0.0000   -6.6073    0.0000 C   0  0  0  0  0  0  0  0  0  0  0  0
   -0.0000   -3.6073    0.0000 C   0  0  0  0  0  0  0  0  0  0  0  0
    1.2135   -2.7256    0.0000 C   0  0  0  0  0  0  0  0  0  0  0  0
    0.7500   -1.2990    0.0000 C   0  0  0  0  0  0  0  0  0  0  0  0
    1.5000    0.0000    0.0000 C   0  0  0  0  0  0  0  0  0  0  0  0
    0.7500    1.2990    0.0000 C   0  0  0  0  0  0  0  0  0  0  0  0
    1.5000    2.5981    0.0000 N   0  0  0  0  0  0  0  0  0  0  0  0
    3.0000    2.5981    0.0000 C   0  0  0  0  0  0  0  0  0  0  0  0
    3.7500    1.2990    0.0000 N   0  0  0  0  0  0  0  0  0  0  0  0
    5.2500    1.2990    0.0000 C   0  0  0  0  0  0  0  0  0  0  0  0
    6.0000    2.5981    0.0000 C   0  0  0  0  0  0  0  0  0  0  0  0
    5.2500    3.8971    0.0000 C   0  0  0  0  0  0  0  0  0  0  0  0
    6.0000    5.1962    0.0000 C   0  0  0  0  0  0  0  0  0  0  0  0
    7.5000    5.1962    0.0000 C   0  0  0  0  0  0  0  0  0  0  0  0
    8.2500    6.4952    0.0000 C   0  0  0  0  0  0  0  0  0  0  0  0
    9.7500    6.4952    0.0000 C   0  0  0  0  0  0  0  0  0  0  0  0
   10.6317    7.7087    0.0000 C   0  0  0  0  0  0  0  0  0  0  0  0
   12.0583    7.2452    0.0000 C   0  0  0  0  0  0  0  0  0  0  0  0
   12.0583    5.7452    0.0000 N   0  0  0  0  0  0  0  0  0  0  0  0
   10.6317    5.2817    0.0000 C   0  0  0  0  0  0  0  0  0  0  0  0
    7.5000    7.7942    0.0000 C   0  0  0  0  0  0  0  0  0  0  0  0
    6.0000    7.7942    0.0000 C   0  0  0  0  0  0  0  0  0  0  0  0
    5.2500    6.4952    0.0000 N   0  0  0  0  0  0  0  0  0  0  0  0
    3.7500    3.8971    0.0000 N   0  0  0  0  0  0  0  0  0  0  0  0
   -0.7500    1.2990    0.0000 C   0  0  0  0  0  0  0  0  0  0  0  0
   -1.5000    0.0000    0.0000 C   0  0  0  0  0  0  0  0  0  0  0  0
   -0.7500   -1.2990    0.0000 C   0  0  0  0  0  0  0  0  0  0  0  0
   -1.2135   -2.7256    0.0000 N   0  0  0  0  0  0  0  0  0  0  0  0
  1  2  1  0
  2  3  1  0
  2  4  1  0
  2  5  1  0
  5  6  2  0
  6  7  1  0
  7  8  2  0
  8  9  1  0
  9 10  1  0
 10 11  1  0
 11 12  2  0
 12 13  1  0
 13 14  2  0
 14 15  1  0
 15 16  1  0
 16 17  2  0
 17 18  1  0
 18 19  1  0
 19 20  1  0
 20 21  2  0
 21 22  1  0
 22 23  1  0
 18 24  2  0
 24 25  1  0
 25 26  2  0
 15 27  2  0
  9 28  2  0
 28 29  1  0
 29 30  2  0
 30 31  1  0
 31  5  1  0
 30  7  1  0
 27 11  1  0
 26 16  1  0
 23 19  2  0
M  END
>  <Compound_ID>  (81) 
CHEMBL3641503

>  <Molecule Name>  (81) 
nan

>  <Molecular Weight>  (81) 
408.51

>  <AlogP>  (81) 
6.06

>  <Smiles>  (81) 
CC(C)(C)c1cc2cc(Nc3nccc(-c4cc(-c5cc[nH]c5)ccn4)n3)ccc2[nH]1

>  <Standard Type>  (81) 
IC50

>  <Standard Relation>  (81) 
'='

>  <Standard Units>  (81) 
nM

>  <Standard Value>  (81) 
13.7

>  <Assay ChEMBL ID>  (81) 
CHEMBL3705803

>  <Assay Description>  (81) 
Kinase Glo Luminescence Kinase Assay: Recombinant human Syk (amino acids 342-635) was expressed as a fusion protein with an N-terminal GST tag, affinity-purified and deep-frozen at a concentration of approx. 50-100 uM in test buffer (25 mM HEPES pH7.5; 25 mM MgCl2; 5 mM MnCl2; 50 mM KCl; 0.2% BSA; 0.01% CHAPS; 100 uM Na3VO4; 0.5 mM DTT) and 10% glycerol at -80 C until use. The catalytic activity of the GST-Syk kinase fusion protein was determined using the Kinase Glo Luminescence Kinase test (Promega; V6712). In this homogeneous test the amount of ATP remaining after the kinase reaction is quantified by a luciferin-luciferase reaction using luminescence. The luminescence signal obtained correlates with the amount of ATP still present and thus correlates inversely with the activity of the protein kinase. The test compounds were dissolved in 100% DMSO at a concentration of 10 mM and diluted in DMSO to a concentration of 1 mM.

>  <BAO Format ID>  (81) 
BAO_0000357

>  <BAO Label>  (81) 
single protein format

>  <Assay Organism>  (81) 
Homo sapiens

>  <Target ChEMBL ID>  (81) 
CHEMBL2599

>  <Target Name>  (81) 
Tyrosine-protein kinase SYK

>  <Target Organism>  (81) 
Homo sapiens

>  <Target Type>  (81) 
SINGLE PROTEIN

>  <Document ChEMBL ID>  (81) 
CHEMBL3638486

>  <Source Description>  (81) 
BindingDB Database

>  <Document Journal>  (81) 
nan

>  <Document Year>  (81) 
2014.0

>  <Active>  (81) 
1.0

>  <bits>  (81) 
<rdkit.DataStructs.cDataStructs.ExplicitBitVect object at 0x00000193F3400AC0>

>  <Group>  (81) 
G2

$$$$

     RDKit          2D

 27 29  0  0  0  0  0  0  0  0999 V2000
    3.7500   -1.2990    0.0000 C   0  0  0  0  0  0  0  0  0  0  0  0
    3.0000    0.0000    0.0000 O   0  0  0  0  0  0  0  0  0  0  0  0
    1.5000    0.0000    0.0000 C   0  0  0  0  0  0  0  0  0  0  0  0
    0.7500   -1.2990    0.0000 N   0  0  0  0  0  0  0  0  0  0  0  0
   -0.7500   -1.2990    0.0000 C   0  0  0  0  0  0  0  0  0  0  0  0
   -1.5000   -2.5981    0.0000 N   0  0  0  0  0  0  0  0  0  0  0  0
   -3.0000   -2.5981    0.0000 C   0  0  0  0  0  0  0  0  0  0  0  0
   -3.7500   -1.2990    0.0000 C   0  0  0  0  0  0  0  0  0  0  0  0
   -5.2500   -1.2990    0.0000 C   0  0  0  0  0  0  0  0  0  0  0  0
   -6.0000    0.0000    0.0000 C   0  0  0  0  0  0  0  0  0  0  0  0
   -6.0000   -2.5981    0.0000 C   0  0  0  0  0  0  0  0  0  0  0  0
   -5.2500   -3.8971    0.0000 C   0  0  0  0  0  0  0  0  0  0  0  0
   -6.0000   -5.1962    0.0000 C   0  0  0  0  0  0  0  0  0  0  0  0
   -5.3899   -6.5665    0.0000 C   0  0  0  0  0  0  0  0  0  0  0  0
   -6.5046   -7.5702    0.0000 N   0  0  0  0  0  0  0  0  0  0  0  0
   -7.8037   -6.8202    0.0000 C   0  0  0  0  0  0  0  0  0  0  0  0
   -9.1740   -7.4303    0.0000 C   0  0  0  0  0  0  0  0  0  0  0  0
   -8.5639   -8.8006    0.0000 C   0  0  0  0  0  0  0  0  0  0  0  0
  -10.5443   -8.0404    0.0000 O   0  0  0  0  0  0  0  0  0  0  0  0
   -9.7841   -6.0600    0.0000 C   0  0  0  0  0  0  0  0  0  0  0  0
  -11.2759   -5.9032    0.0000 O   0  0  0  0  0  0  0  0  0  0  0  0
   -7.4918   -5.3529    0.0000 S   0  0  0  0  0  0  0  0  0  0  0  0
   -3.7500   -3.8971    0.0000 C   0  0  0  0  0  0  0  0  0  0  0  0
   -1.5000    0.0000    0.0000 N   0  0  0  0  0  0  0  0  0  0  0  0
   -0.7500    1.2990    0.0000 C   0  0  0  0  0  0  0  0  0  0  0  0
    0.7500    1.2990    0.0000 C   0  0  0  0  0  0  0  0  0  0  0  0
    1.5000    2.5981    0.0000 F   0  0  0  0  0  0  0  0  0  0  0  0
  1  2  1  0
  2  3  1  0
  3  4  2  0
  4  5  1  0
  5  6  1  0
  6  7  1  0
  7  8  2  0
  8  9  1  0
  9 10  1  0
  9 11  2  0
 11 12  1  0
 12 13  1  0
 13 14  2  0
 14 15  1  0
 15 16  2  0
 16 17  1  0
 17 18  1  0
 17 19  1  0
 17 20  1  0
 20 21  1  0
 16 22  1  0
 12 23  2  0
  5 24  2  0
 24 25  1  0
 25 26  2  0
 26 27  1  0
 26  3  1  0
 23  7  1  0
 22 13  1  0
M  END
>  <Compound_ID>  (82) 
CHEMBL3685793

>  <Molecule Name>  (82) 
nan

>  <Molecular Weight>  (82) 
390.44

>  <AlogP>  (82) 
3.00

>  <Smiles>  (82) 
COc1nc(Nc2cc(C)cc(-c3cnc(C(C)(O)CO)s3)c2)ncc1F

>  <Standard Type>  (82) 
IC50

>  <Standard Relation>  (82) 
'='

>  <Standard Units>  (82) 
nM

>  <Standard Value>  (82) 
22.0

>  <Assay ChEMBL ID>  (82) 
CHEMBL3705225

>  <Assay Description>  (82) 
Homogeneous Time-Resolved Fluorescence (HTRF) Assay : A recombinant GST-hSYK fusion protein was used to measure potency of compounds to inhibit human SYK activity. The recombinant human GST-SYK (Carna Biosciences #08-176) (5 pM final concentration) was incubated with various concentrations of the inhibitor diluted in DMSO (0.1% final concentration) for 10 minutes at room temperature in 15 mM Tris-HCl (pH 7.5), 0.01% tween 20, 2 mM DTT in 384 well plate format. To initiate the reaction the biotinylated substrate peptide (250 nM final concentration) that contains the phosphorylation site for SYK was added with magnesium (5 mM final concentration) and ATP (25 μM final concentration). Final volume of the reaction was 10 μL. Phosphorylation of the peptide was allowed to proceed for 45′ at room temperature.

>  <BAO Format ID>  (82) 
BAO_0000357

>  <BAO Label>  (82) 
single protein format

>  <Assay Organism>  (82) 
Homo sapiens

>  <Target ChEMBL ID>  (82) 
CHEMBL2599

>  <Target Name>  (82) 
Tyrosine-protein kinase SYK

>  <Target Organism>  (82) 
Homo sapiens

>  <Target Type>  (82) 
SINGLE PROTEIN

>  <Document ChEMBL ID>  (82) 
CHEMBL3639355

>  <Source Description>  (82) 
BindingDB Database

>  <Document Journal>  (82) 
nan

>  <Document Year>  (82) 
2014.0

>  <Active>  (82) 
1.0

>  <bits>  (82) 
<rdkit.DataStructs.cDataStructs.ExplicitBitVect object at 0x00000193F34009E0>

>  <Group>  (82) 
G2

$$$$

     RDKit          2D

 32 35  0  0  0  0  0  0  0  0999 V2000
    5.2500   -1.2990    0.0000 C   0  0  0  0  0  0  0  0  0  0  0  0
    3.7500   -1.2990    0.0000 O   0  0  0  0  0  0  0  0  0  0  0  0
    3.0000    0.0000    0.0000 C   0  0  0  0  0  0  0  0  0  0  0  0
    1.5000    0.0000    0.0000 C   0  0  0  0  0  0  0  0  0  0  0  0
    0.7500   -1.2990    0.0000 C   0  0  0  0  0  0  0  0  0  0  0  0
   -0.7500   -1.2990    0.0000 N   0  0  0  0  0  0  0  0  0  0  0  0
   -1.5000   -2.5981    0.0000 C   0  0  0  0  0  0  0  0  0  0  0  0
   -3.0000   -2.5981    0.0000 C   0  0  0  0  0  0  0  0  0  0  0  0
   -3.7500   -3.8971    0.0000 C   0  0  0  0  0  0  0  0  0  0  0  0
   -5.2500   -3.8971    0.0000 N   0  0  0  0  0  0  0  0  0  0  0  0
   -6.0000   -2.5981    0.0000 C   0  0  0  0  0  0  0  0  0  0  0  0
   -5.2500   -1.2990    0.0000 N   0  0  0  0  0  0  0  0  0  0  0  0
   -6.0000   -0.0000    0.0000 C   0  0  0  0  0  0  0  0  0  0  0  0
   -7.5000   -0.0000    0.0000 C   0  0  0  0  0  0  0  0  0  0  0  0
   -8.2500   -1.2990    0.0000 C   0  0  0  0  0  0  0  0  0  0  0  0
   -9.7500   -1.2990    0.0000 C   0  0  0  0  0  0  0  0  0  0  0  0
  -11.2500   -1.2990    0.0000 F   0  0  0  0  0  0  0  0  0  0  0  0
   -9.7500    0.2010    0.0000 F   0  0  0  0  0  0  0  0  0  0  0  0
   -9.7500   -2.7990    0.0000 F   0  0  0  0  0  0  0  0  0  0  0  0
   -7.5000   -2.5981    0.0000 N   0  0  0  0  0  0  0  0  0  0  0  0
   -3.0000   -5.1962    0.0000 C   0  0  0  0  0  0  0  0  0  0  0  0
   -1.5000   -5.1962    0.0000 C   0  0  0  0  0  0  0  0  0  0  0  0
   -0.7500   -6.4952    0.0000 C   0  0  0  0  0  0  0  0  0  0  0  0
   -1.5000   -7.7942    0.0000 C   0  0  0  0  0  0  0  0  0  0  0  0
   -0.7500   -9.0933    0.0000 C   0  0  0  0  0  0  0  0  0  0  0  0
    0.7500   -9.0933    0.0000 C   0  0  0  0  0  0  0  0  0  0  0  0
    1.5000   -7.7942    0.0000 C   0  0  0  0  0  0  0  0  0  0  0  0
    0.7500   -6.4952    0.0000 C   0  0  0  0  0  0  0  0  0  0  0  0
   -0.7500   -3.8971    0.0000 C   0  0  0  0  0  0  0  0  0  0  0  0
   -1.5000    0.0000    0.0000 C   0  0  0  0  0  0  0  0  0  0  0  0
   -0.7500    1.2990    0.0000 C   0  0  0  0  0  0  0  0  0  0  0  0
    0.7500    1.2990    0.0000 O   0  0  0  0  0  0  0  0  0  0  0  0
  1  2  1  0
  2  3  1  0
  3  4  1  0
  4  5  1  0
  5  6  1  0
  6  7  1  0
  7  8  2  0
  8  9  1  0
  9 10  1  0
 10 11  1  0
 11 12  2  0
 12 13  1  0
 13 14  2  0
 14 15  1  0
 15 16  1  0
 16 17  1  0
 16 18  1  0
 16 19  1  0
 15 20  2  0
  9 21  2  0
 21 22  1  0
 22 23  1  0
 23 24  2  0
 24 25  1  0
 25 26  2  0
 26 27  1  0
 27 28  2  0
 22 29  2  0
  6 30  1  0
 30 31  1  0
 31 32  1  0
 32  4  1  0
 29  7  1  0
 20 11  1  0
 28 23  1  0
M  END
>  <Compound_ID>  (83) 
CHEMBL3912785

>  <Molecule Name>  (83) 
nan

>  <Molecular Weight>  (83) 
444.46

>  <AlogP>  (83) 
4.76

>  <Smiles>  (83) 
COCC1CN(c2cc(Nc3nccc(C(F)(F)F)n3)cc(-c3ccccc3)c2)CCO1

>  <Standard Type>  (83) 
IC50

>  <Standard Relation>  (83) 
'='

>  <Standard Units>  (83) 
nM

>  <Standard Value>  (83) 
58.1

>  <Assay ChEMBL ID>  (83) 
CHEMBL3888530

>  <Assay Description>  (83) 
Homogeneous Time-Resolved Fluorescence (HTRF) Assay: A recombinant GST-hSYK fusion protein was used to measure potency of compounds to inhibit human Syk activity. The recombinant human GST-SYK (Carna Biosciences #08-176) (5 μM final concentration) was incubated with various concentrations of the inhibitor diluted in DMSO (0.1% final concentration) for 10 minutes at room temperature in 15 mM Tris-HCl (pH 7.5), 0.01% tween 20, 2 mM DTT in 384 well plate format. To initiate the reaction the biotinylated substrate peptide (250 nM final concentration) that contains the phosphorylation site for Syk was added with magnesium (5 mM final concentration) and ATP (25 μM final concentration). Final volume of the reaction was 10 μL. Phosphorylation of the peptide was allowed to proceed for 45' at room temperature. To quench the reaction and detect the phosphorylated product, 2 nM of a Europium-anti-phosphotyrosine antibody (Perkin Elmer #AD0161) and 70 nM SA-APC (Perkin-Elmer #CR130-100) were added together in 15 mM Tris pH 7.5, 40 mM EDTA, 0.01% tween 20. Final volume of the quenching solution was 10 μL. The resulting HTRF signal was measured after 30 minutes on an EnVision (Perkin-Elmer) reader using a time-resolved fluorescence protocol.

>  <BAO Format ID>  (83) 
BAO_0000357

>  <BAO Label>  (83) 
single protein format

>  <Assay Organism>  (83) 
Homo sapiens

>  <Target ChEMBL ID>  (83) 
CHEMBL2599

>  <Target Name>  (83) 
Tyrosine-protein kinase SYK

>  <Target Organism>  (83) 
Homo sapiens

>  <Target Type>  (83) 
SINGLE PROTEIN

>  <Document ChEMBL ID>  (83) 
CHEMBL3886750

>  <Source Description>  (83) 
BindingDB Database

>  <Document Journal>  (83) 
nan

>  <Document Year>  (83) 
2016.0

>  <Active>  (83) 
1.0

>  <bits>  (83) 
<rdkit.DataStructs.cDataStructs.ExplicitBitVect object at 0x00000193F3401000>

>  <Group>  (83) 
G2

$$$$

     RDKit          2D

 28 31  0  0  0  0  0  0  0  0999 V2000
    3.7500   -1.2990    0.0000 C   0  0  0  0  0  0  0  0  0  0  0  0
    3.0000    0.0000    0.0000 O   0  0  0  0  0  0  0  0  0  0  0  0
    1.5000    0.0000    0.0000 C   0  0  0  0  0  0  0  0  0  0  0  0
    0.7500   -1.2990    0.0000 C   0  0  0  0  0  0  0  0  0  0  0  0
   -0.7500   -1.2990    0.0000 C   0  0  0  0  0  0  0  0  0  0  0  0
   -1.5000    0.0000    0.0000 C   0  0  0  0  0  0  0  0  0  0  0  0
   -0.7500    1.2990    0.0000 C   0  0  0  0  0  0  0  0  0  0  0  0
   -1.2135    2.7256    0.0000 N   0  0  0  0  0  0  0  0  0  0  0  0
   -0.0000    3.6073    0.0000 C   0  0  0  0  0  0  0  0  0  0  0  0
   -0.0000    5.1073    0.0000 C   0  0  0  0  0  0  0  0  0  0  0  0
    1.2990    5.8573    0.0000 N   0  0  0  0  0  0  0  0  0  0  0  0
    1.2990    7.3573    0.0000 C   0  0  0  0  0  0  0  0  0  0  0  0
    2.5981    8.1073    0.0000 N   0  0  0  0  0  0  0  0  0  0  0  0
    3.8971    7.3573    0.0000 C   0  0  0  0  0  0  0  0  0  0  0  0
    3.8971    5.8573    0.0000 C   0  0  0  0  0  0  0  0  0  0  0  0
    5.1962    5.1073    0.0000 C   0  0  0  0  0  0  0  0  0  0  0  0
    6.4952    5.8573    0.0000 O   0  0  0  0  0  0  0  0  0  0  0  0
    6.4952    7.3573    0.0000 C   0  0  0  0  0  0  0  0  0  0  0  0
    5.1962    8.1073    0.0000 C   0  0  0  0  0  0  0  0  0  0  0  0
    5.1962    9.6073    0.0000 N   0  0  0  0  0  0  0  0  0  0  0  0
   -0.0000    8.1073    0.0000 C   0  0  0  0  0  0  0  0  0  0  0  0
   -1.2990    7.3573    0.0000 N   0  0  0  0  0  0  0  0  0  0  0  0
   -1.2990    5.8573    0.0000 C   0  0  0  0  0  0  0  0  0  0  0  0
   -2.5981    5.1073    0.0000 C   0  0  0  0  0  0  0  0  0  0  0  0
   -3.8971    5.8573    0.0000 N   0  0  0  0  0  0  0  0  0  0  0  0
   -2.5981    3.6073    0.0000 O   0  0  0  0  0  0  0  0  0  0  0  0
    1.2135    2.7256    0.0000 C   0  0  0  0  0  0  0  0  0  0  0  0
    0.7500    1.2990    0.0000 C   0  0  0  0  0  0  0  0  0  0  0  0
  1  2  1  0
  2  3  1  0
  3  4  2  0
  4  5  1  0
  5  6  2  0
  6  7  1  0
  7  8  1  0
  8  9  1  0
  9 10  1  0
 10 11  2  0
 11 12  1  0
 12 13  1  0
 14 13  1  1
 14 15  1  0
 15 16  1  0
 16 17  1  0
 17 18  1  0
 18 19  1  0
 19 20  1  1
 12 21  2  0
 21 22  1  0
 22 23  2  0
 23 24  1  0
 24 25  1  0
 24 26  2  0
  9 27  2  0
 27 28  1  0
 28  3  1  0
 28  7  2  0
 23 10  1  0
 19 14  1  0
M  END
>  <Compound_ID>  (84) 
CHEMBL3415610

>  <Molecule Name>  (84) 
nan

>  <Molecular Weight>  (84) 
382.42

>  <AlogP>  (84) 
1.26

>  <Smiles>  (84) 
COc1cccc2[nH]c(-c3nc(N[C@@H]4CCOC[C@@H]4N)cnc3C(N)=O)cc12

>  <Standard Type>  (84) 
IC50

>  <Standard Relation>  (84) 
'='

>  <Standard Units>  (84) 
nM

>  <Standard Value>  (84) 
0.7

>  <Assay ChEMBL ID>  (84) 
CHEMBL3420413

>  <Assay Description>  (84) 
Inhibition of full-length GST-tagged human Syk preincubated for 10 mins followed by peptide substrate/ATP addition measured after 45 mins by TR-FRET assay

>  <BAO Format ID>  (84) 
BAO_0000357

>  <BAO Label>  (84) 
single protein format

>  <Assay Organism>  (84) 
Homo sapiens

>  <Target ChEMBL ID>  (84) 
CHEMBL2599

>  <Target Name>  (84) 
Tyrosine-protein kinase SYK

>  <Target Organism>  (84) 
Homo sapiens

>  <Target Type>  (84) 
SINGLE PROTEIN

>  <Document ChEMBL ID>  (84) 
CHEMBL3414497

>  <Source Description>  (84) 
Scientific Literature

>  <Document Journal>  (84) 
J Med Chem

>  <Document Year>  (84) 
2015.0

>  <Active>  (84) 
1.0

>  <bits>  (84) 
<rdkit.DataStructs.cDataStructs.ExplicitBitVect object at 0x00000193F3402CE0>

>  <Group>  (84) 
G2

$$$$

     RDKit          2D

 32 35  0  0  0  0  0  0  0  0999 V2000
    3.7500   -1.2990    0.0000 C   0  0  0  0  0  0  0  0  0  0  0  0
    3.0000    0.0000    0.0000 O   0  0  0  0  0  0  0  0  0  0  0  0
    1.5000    0.0000    0.0000 C   0  0  0  0  0  0  0  0  0  0  0  0
    0.7500   -1.2990    0.0000 C   0  0  0  0  0  0  0  0  0  0  0  0
   -0.7500   -1.2990    0.0000 C   0  0  0  0  0  0  0  0  0  0  0  0
   -1.5000    0.0000    0.0000 C   0  0  0  0  0  0  0  0  0  0  0  0
   -0.7500    1.2990    0.0000 C   0  0  0  0  0  0  0  0  0  0  0  0
    0.7500    1.2990    0.0000 C   0  0  0  0  0  0  0  0  0  0  0  0
   -1.7537    2.4138    0.0000 C   0  0  0  0  0  0  0  0  0  0  0  0
   -1.4418    3.8810    0.0000 C   0  0  0  0  0  0  0  0  0  0  0  0
   -2.5565    4.8847    0.0000 C   0  0  0  0  0  0  0  0  0  0  0  0
   -4.0238    4.5728    0.0000 C   0  0  0  0  0  0  0  0  0  0  0  0
   -4.6339    3.2025    0.0000 O   0  0  0  0  0  0  0  0  0  0  0  0
   -4.7738    5.8718    0.0000 N   0  0  0  0  0  0  0  0  0  0  0  0
   -3.7701    6.9866    0.0000 C   0  0  0  0  0  0  0  0  0  0  0  0
   -3.9269    8.4783    0.0000 C   0  0  0  0  0  0  0  0  0  0  0  0
   -2.7133    9.3600    0.0000 C   0  0  0  0  0  0  0  0  0  0  0  0
   -1.3430    8.7499    0.0000 C   0  0  0  0  0  0  0  0  0  0  0  0
   -0.1295    9.6316    0.0000 S   0  0  0  0  0  0  0  0  0  0  0  0
    0.7522    8.4181    0.0000 O   0  0  0  0  0  0  0  0  0  0  0  0
   -1.0112   10.8451    0.0000 O   0  0  0  0  0  0  0  0  0  0  0  0
    1.0840   10.5133    0.0000 N   0  0  0  0  0  0  0  0  0  0  0  0
    0.9272   12.0051    0.0000 C   0  0  0  0  0  0  0  0  0  0  0  0
    2.1408   12.8867    0.0000 C   0  0  0  0  0  0  0  0  0  0  0  0
    1.9840   14.3785    0.0000 C   0  0  0  0  0  0  0  0  0  0  0  0
    3.1975   15.2602    0.0000 N   0  0  0  0  0  0  0  0  0  0  0  0
    0.6137   14.9886    0.0000 O   0  0  0  0  0  0  0  0  0  0  0  0
   -1.1862    7.2581    0.0000 C   0  0  0  0  0  0  0  0  0  0  0  0
   -2.3998    6.3765    0.0000 C   0  0  0  0  0  0  0  0  0  0  0  0
   -3.1240    1.8037    0.0000 C   0  0  0  0  0  0  0  0  0  0  0  0
   -2.9672    0.3119    0.0000 N   0  0  0  0  0  0  0  0  0  0  0  0
   -4.0819   -0.6918    0.0000 C   0  0  0  0  0  0  0  0  0  0  0  0
  1  2  1  0
  2  3  1  0
  3  4  2  0
  4  5  1  0
  5  6  2  0
  6  7  1  0
  7  8  2  0
  7  9  1  0
  9 10  1  0
 10 11  2  0
 11 12  1  0
 12 13  2  0
 12 14  1  0
 14 15  1  0
 15 16  2  0
 16 17  1  0
 17 18  2  0
 18 19  1  0
 19 20  2  0
 19 21  2  0
 19 22  1  0
 22 23  1  0
 23 24  1  0
 24 25  1  0
 25 26  1  0
 25 27  2  0
 18 28  1  0
 28 29  2  0
  9 30  2  0
 30 31  1  0
 31 32  1  0
  8  3  1  0
 29 11  1  0
 31  6  1  0
 29 15  1  0
M  END
>  <Compound_ID>  (85) 
CHEMBL105427

>  <Molecule Name>  (85) 
nan

>  <Molecular Weight>  (85) 
454.51

>  <AlogP>  (85) 
1.83

>  <Smiles>  (85) 
COc1ccc2c(c1)c(/C=C1\C(=O)Nc3ccc(S(=O)(=O)NCCC(N)=O)cc31)cn2C

>  <Standard Type>  (85) 
IC50

>  <Standard Relation>  (85) 
'='

>  <Standard Units>  (85) 
nM

>  <Standard Value>  (85) 
60.0

>  <Assay ChEMBL ID>  (85) 
CHEMBL1022010

>  <Assay Description>  (85) 
Inhibition of recombinant Syk

>  <BAO Format ID>  (85) 
BAO_0000357

>  <BAO Label>  (85) 
single protein format

>  <Assay Organism>  (85) 
None

>  <Target ChEMBL ID>  (85) 
CHEMBL2599

>  <Target Name>  (85) 
Tyrosine-protein kinase SYK

>  <Target Organism>  (85) 
Homo sapiens

>  <Target Type>  (85) 
SINGLE PROTEIN

>  <Document ChEMBL ID>  (85) 
CHEMBL1138583

>  <Source Description>  (85) 
Scientific Literature

>  <Document Journal>  (85) 
Bioorg Med Chem Lett

>  <Document Year>  (85) 
2009.0

>  <Active>  (85) 
1.0

>  <bits>  (85) 
<rdkit.DataStructs.cDataStructs.ExplicitBitVect object at 0x00000193F3400120>

>  <Group>  (85) 
G2

$$$$

     RDKit          2D

 31 35  0  0  0  0  0  0  0  0999 V2000
    9.1329   -1.4107    0.0000 N   0  0  0  0  0  0  0  0  0  0  0  0
    8.0182   -0.4070    0.0000 C   0  0  0  0  0  0  0  0  0  0  0  0
    8.3301    1.0602    0.0000 O   0  0  0  0  0  0  0  0  0  0  0  0
    6.5916   -0.8705    0.0000 C   0  0  0  0  0  0  0  0  0  0  0  0
    6.2798   -2.3377    0.0000 C   0  0  0  0  0  0  0  0  0  0  0  0
    4.8532   -2.8013    0.0000 C   0  0  0  0  0  0  0  0  0  0  0  0
    3.7385   -1.7976    0.0000 C   0  0  0  0  0  0  0  0  0  0  0  0
    4.0503   -0.3303    0.0000 C   0  0  0  0  0  0  0  0  0  0  0  0
    5.4769    0.1332    0.0000 C   0  0  0  0  0  0  0  0  0  0  0  0
    5.7888    1.6004    0.0000 C   0  0  0  0  0  0  0  0  0  0  0  0
    7.2154    2.0639    0.0000 C   0  0  0  0  0  0  0  0  0  0  0  0
    7.5272    3.5312    0.0000 C   0  0  0  0  0  0  0  0  0  0  0  0
    6.4125    4.5348    0.0000 N   0  0  0  0  0  0  0  0  0  0  0  0
    4.9859    4.0713    0.0000 C   0  0  0  0  0  0  0  0  0  0  0  0
    3.8712    5.0750    0.0000 C   0  0  0  0  0  0  0  0  0  0  0  0
    4.1831    6.5422    0.0000 C   0  0  0  0  0  0  0  0  0  0  0  0
    3.0684    7.5459    0.0000 C   0  0  0  0  0  0  0  0  0  0  0  0
    1.6418    7.0824    0.0000 N   0  0  0  0  0  0  0  0  0  0  0  0
    1.3299    5.6152    0.0000 C   0  0  0  0  0  0  0  0  0  0  0  0
   -0.0967    5.1517    0.0000 N   0  0  0  0  0  0  0  0  0  0  0  0
   -0.4086    3.6844    0.0000 C   0  0  0  0  0  0  0  0  0  0  0  0
   -1.8351    3.2209    0.0000 C   0  0  0  0  0  0  0  0  0  0  0  0
   -2.1470    1.7537    0.0000 C   0  0  0  0  0  0  0  0  0  0  0  0
   -1.0323    0.7500    0.0000 C   0  0  0  0  0  0  0  0  0  0  0  0
    0.3943    1.2135    0.0000 C   0  0  0  0  0  0  0  0  0  0  0  0
    0.7062    2.6807    0.0000 C   0  0  0  0  0  0  0  0  0  0  0  0
    1.2760    0.0000    0.0000 C   0  0  0  0  0  0  0  0  0  0  0  0
    0.3943   -1.2135    0.0000 O   0  0  0  0  0  0  0  0  0  0  0  0
   -1.0323   -0.7500    0.0000 C   0  0  0  0  0  0  0  0  0  0  0  0
    2.4446    4.6115    0.0000 N   0  0  0  0  0  0  0  0  0  0  0  0
    4.6741    2.6041    0.0000 C   0  0  0  0  0  0  0  0  0  0  0  0
  1  2  1  0
  2  3  2  0
  2  4  1  0
  4  5  2  0
  5  6  1  0
  6  7  2  0
  7  8  1  0
  8  9  2  0
  9 10  1  0
 10 11  2  0
 11 12  1  0
 12 13  2  0
 13 14  1  0
 14 15  1  0
 15 16  2  0
 16 17  1  0
 17 18  2  0
 18 19  1  0
 19 20  1  0
 20 21  1  0
 21 22  2  0
 22 23  1  0
 23 24  2  0
 24 25  1  0
 25 26  2  0
 25 27  1  0
 27 28  1  0
 28 29  1  0
 19 30  2  0
 14 31  2  0
  9  4  1  0
 31 10  1  0
 30 15  1  0
 26 21  1  0
 29 24  1  0
M  END
>  <Compound_ID>  (86) 
CHEMBL3641500

>  <Molecule Name>  (86) 
nan

>  <Molecular Weight>  (86) 
409.45

>  <AlogP>  (86) 
4.08

>  <Smiles>  (86) 
NC(=O)c1ccccc1-c1ccnc(-c2ccnc(Nc3ccc4c(c3)COC4)n2)c1

>  <Standard Type>  (86) 
IC50

>  <Standard Relation>  (86) 
'='

>  <Standard Units>  (86) 
nM

>  <Standard Value>  (86) 
15.0

>  <Assay ChEMBL ID>  (86) 
CHEMBL3705803

>  <Assay Description>  (86) 
Kinase Glo Luminescence Kinase Assay: Recombinant human Syk (amino acids 342-635) was expressed as a fusion protein with an N-terminal GST tag, affinity-purified and deep-frozen at a concentration of approx. 50-100 uM in test buffer (25 mM HEPES pH7.5; 25 mM MgCl2; 5 mM MnCl2; 50 mM KCl; 0.2% BSA; 0.01% CHAPS; 100 uM Na3VO4; 0.5 mM DTT) and 10% glycerol at -80 C until use. The catalytic activity of the GST-Syk kinase fusion protein was determined using the Kinase Glo Luminescence Kinase test (Promega; V6712). In this homogeneous test the amount of ATP remaining after the kinase reaction is quantified by a luciferin-luciferase reaction using luminescence. The luminescence signal obtained correlates with the amount of ATP still present and thus correlates inversely with the activity of the protein kinase. The test compounds were dissolved in 100% DMSO at a concentration of 10 mM and diluted in DMSO to a concentration of 1 mM.

>  <BAO Format ID>  (86) 
BAO_0000357

>  <BAO Label>  (86) 
single protein format

>  <Assay Organism>  (86) 
Homo sapiens

>  <Target ChEMBL ID>  (86) 
CHEMBL2599

>  <Target Name>  (86) 
Tyrosine-protein kinase SYK

>  <Target Organism>  (86) 
Homo sapiens

>  <Target Type>  (86) 
SINGLE PROTEIN

>  <Document ChEMBL ID>  (86) 
CHEMBL3638486

>  <Source Description>  (86) 
BindingDB Database

>  <Document Journal>  (86) 
nan

>  <Document Year>  (86) 
2014.0

>  <Active>  (86) 
1.0

>  <bits>  (86) 
<rdkit.DataStructs.cDataStructs.ExplicitBitVect object at 0x00000193F3402960>

>  <Group>  (86) 
G2

$$$$

     RDKit          2D

 28 32  0  0  0  0  0  0  0  0999 V2000
   -6.0000   -5.1962    0.0000 C   0  0  0  0  0  0  0  0  0  0  0  0
   -5.2500   -3.8971    0.0000 C   0  0  0  0  0  0  0  0  0  0  0  0
   -3.7500   -3.8971    0.0000 C   0  0  0  0  0  0  0  0  0  0  0  0
   -3.0000   -5.1962    0.0000 C   0  0  0  0  0  0  0  0  0  0  0  0
   -1.5000   -5.1962    0.0000 C   0  0  0  0  0  0  0  0  0  0  0  0
   -0.7500   -6.4952    0.0000 C   0  0  0  0  0  0  0  0  0  0  0  0
    0.7500   -6.4952    0.0000 C   0  0  0  0  0  0  0  0  0  0  0  0
    1.5000   -5.1962    0.0000 N   0  0  0  0  0  0  0  0  0  0  0  0
    0.7500   -3.8971    0.0000 C   0  0  0  0  0  0  0  0  0  0  0  0
    1.5000   -2.5981    0.0000 N   0  0  0  0  0  0  0  0  0  0  0  0
    0.7500   -1.2990    0.0000 C   0  0  0  0  0  0  0  0  0  0  0  0
    1.5000    0.0000    0.0000 C   0  0  0  0  0  0  0  0  0  0  0  0
    0.7500    1.2990    0.0000 C   0  0  0  0  0  0  0  0  0  0  0  0
   -0.7500    1.2990    0.0000 C   0  0  0  0  0  0  0  0  0  0  0  0
   -1.7537    2.4138    0.0000 N   0  0  0  0  0  0  0  0  0  0  0  0
   -3.1240    1.8037    0.0000 C   0  0  0  0  0  0  0  0  0  0  0  0
   -4.4231    2.5537    0.0000 C   0  0  0  0  0  0  0  0  0  0  0  0
   -4.4231    4.0537    0.0000 C   0  0  0  0  0  0  0  0  0  0  0  0
   -5.7221    4.8037    0.0000 C   0  0  0  0  0  0  0  0  0  0  0  0
   -7.0211    4.0537    0.0000 C   0  0  0  0  0  0  0  0  0  0  0  0
   -7.0211    2.5537    0.0000 C   0  0  0  0  0  0  0  0  0  0  0  0
   -5.7221    1.8037    0.0000 N   0  0  0  0  0  0  0  0  0  0  0  0
   -2.9672    0.3119    0.0000 N   0  0  0  0  0  0  0  0  0  0  0  0
   -1.5000    0.0000    0.0000 C   0  0  0  0  0  0  0  0  0  0  0  0
   -0.7500   -1.2990    0.0000 C   0  0  0  0  0  0  0  0  0  0  0  0
   -0.7500   -3.8971    0.0000 N   0  0  0  0  0  0  0  0  0  0  0  0
   -3.7500   -6.4952    0.0000 N   0  0  0  0  0  0  0  0  0  0  0  0
   -5.2500   -6.4952    0.0000 C   0  0  0  0  0  0  0  0  0  0  0  0
  1  2  2  0
  2  3  1  0
  3  4  2  0
  4  5  1  0
  5  6  2  0
  6  7  1  0
  7  8  2  0
  8  9  1  0
  9 10  1  0
 10 11  1  0
 11 12  2  0
 12 13  1  0
 13 14  2  0
 14 15  1  0
 15 16  2  0
 16 17  1  0
 17 18  2  0
 18 19  1  0
 19 20  2  0
 20 21  1  0
 21 22  2  0
 16 23  1  0
 23 24  1  0
 24 25  2  0
  9 26  2  0
  4 27  1  0
 27 28  2  0
 28  1  1  0
 26  5  1  0
 25 11  1  0
 24 14  1  0
 22 17  1  0
M  END
>  <Compound_ID>  (87) 
CHEMBL3643767

>  <Molecule Name>  (87) 
nan

>  <Molecular Weight>  (87) 
365.4

>  <AlogP>  (87) 
4.22

>  <Smiles>  (87) 
c1ccc(-c2ccnc(Nc3ccc4nc(-c5ccccn5)[nH]c4c3)n2)nc1

>  <Standard Type>  (87) 
IC50

>  <Standard Relation>  (87) 
'='

>  <Standard Units>  (87) 
nM

>  <Standard Value>  (87) 
63.0

>  <Assay ChEMBL ID>  (87) 
CHEMBL3705803

>  <Assay Description>  (87) 
Kinase Glo Luminescence Kinase Assay: Recombinant human Syk (amino acids 342-635) was expressed as a fusion protein with an N-terminal GST tag, affinity-purified and deep-frozen at a concentration of approx. 50-100 uM in test buffer (25 mM HEPES pH7.5; 25 mM MgCl2; 5 mM MnCl2; 50 mM KCl; 0.2% BSA; 0.01% CHAPS; 100 uM Na3VO4; 0.5 mM DTT) and 10% glycerol at -80 C until use. The catalytic activity of the GST-Syk kinase fusion protein was determined using the Kinase Glo Luminescence Kinase test (Promega; V6712). In this homogeneous test the amount of ATP remaining after the kinase reaction is quantified by a luciferin-luciferase reaction using luminescence. The luminescence signal obtained correlates with the amount of ATP still present and thus correlates inversely with the activity of the protein kinase. The test compounds were dissolved in 100% DMSO at a concentration of 10 mM and diluted in DMSO to a concentration of 1 mM.

>  <BAO Format ID>  (87) 
BAO_0000357

>  <BAO Label>  (87) 
single protein format

>  <Assay Organism>  (87) 
Homo sapiens

>  <Target ChEMBL ID>  (87) 
CHEMBL2599

>  <Target Name>  (87) 
Tyrosine-protein kinase SYK

>  <Target Organism>  (87) 
Homo sapiens

>  <Target Type>  (87) 
SINGLE PROTEIN

>  <Document ChEMBL ID>  (87) 
CHEMBL3638486

>  <Source Description>  (87) 
BindingDB Database

>  <Document Journal>  (87) 
nan

>  <Document Year>  (87) 
2014.0

>  <Active>  (87) 
1.0

>  <bits>  (87) 
<rdkit.DataStructs.cDataStructs.ExplicitBitVect object at 0x00000193F3401850>

>  <Group>  (87) 
G2

$$$$

     RDKit          2D

 30 32  0  0  0  0  0  0  0  0999 V2000
    9.7500   -3.8971    0.0000 C   0  0  0  0  0  0  0  0  0  0  0  0
    8.2500   -3.8971    0.0000 O   0  0  0  0  0  0  0  0  0  0  0  0
    7.5000   -2.5981    0.0000 C   0  0  0  0  0  0  0  0  0  0  0  0
    8.2500   -1.2990    0.0000 O   0  0  0  0  0  0  0  0  0  0  0  0
    6.0000   -2.5981    0.0000 N   0  0  0  0  0  0  0  0  0  0  0  0
    5.2500   -1.2990    0.0000 C   0  0  0  0  0  0  0  0  0  0  0  0
    3.7500   -1.2990    0.0000 C   0  0  0  0  0  0  0  0  0  0  0  0
    3.0000    0.0000    0.0000 N   0  0  0  0  0  0  0  0  0  0  0  0
    1.5000    0.0000    0.0000 C   0  0  0  0  0  0  0  0  0  0  0  0
    0.7500   -1.2990    0.0000 N   0  0  0  0  0  0  0  0  0  0  0  0
   -0.7500   -1.2990    0.0000 C   0  0  0  0  0  0  0  0  0  0  0  0
   -1.5000   -2.5981    0.0000 C   0  0  0  0  0  0  0  0  0  0  0  0
   -3.0000   -2.5981    0.0000 C   0  0  0  0  0  0  0  0  0  0  0  0
   -3.7500   -3.8971    0.0000 C   0  0  0  0  0  0  0  0  0  0  0  0
   -3.0000   -5.1962    0.0000 C   0  0  0  0  0  0  0  0  0  0  0  0
   -3.7500   -6.4952    0.0000 C   0  0  0  0  0  0  0  0  0  0  0  0
   -2.4510   -7.2452    0.0000 C   0  0  0  0  0  0  0  0  0  0  0  0
   -5.0490   -5.7452    0.0000 C   0  0  0  0  0  0  0  0  0  0  0  0
   -4.5000   -7.7942    0.0000 O   0  0  0  0  0  0  0  0  0  0  0  0
   -1.5000   -5.1962    0.0000 N   0  0  0  0  0  0  0  0  0  0  0  0
   -0.7500   -3.8971    0.0000 C   0  0  0  0  0  0  0  0  0  0  0  0
   -1.5000    0.0000    0.0000 C   0  0  0  0  0  0  0  0  0  0  0  0
   -0.7500    1.2990    0.0000 C   0  0  0  0  0  0  0  0  0  0  0  0
   -1.5000    2.5981    0.0000 N   0  0  0  0  0  0  0  0  0  0  0  0
   -0.7500    3.8971    0.0000 C   0  0  0  0  0  0  0  0  0  0  0  0
    0.7500    3.8971    0.0000 N   0  0  0  0  0  0  0  0  0  0  0  0
    1.5000    5.1962    0.0000 C   0  0  0  0  0  0  0  0  0  0  0  0
    1.5000    2.5981    0.0000 C   0  0  0  0  0  0  0  0  0  0  0  0
    3.0000    2.5981    0.0000 O   0  0  0  0  0  0  0  0  0  0  0  0
    0.7500    1.2990    0.0000 C   0  0  0  0  0  0  0  0  0  0  0  0
  1  2  1  0
  2  3  1  0
  3  4  2  0
  3  5  1  0
  5  6  1  0
  6  7  1  0
  7  8  1  0
  8  9  1  0
  9 10  2  0
 10 11  1  0
 11 12  1  0
 12 13  2  0
 13 14  1  0
 14 15  2  0
 15 16  1  0
 16 17  1  0
 16 18  1  0
 16 19  1  0
 15 20  1  0
 20 21  2  0
 11 22  2  0
 22 23  1  0
 23 24  1  0
 24 25  2  0
 25 26  1  0
 26 27  1  0
 26 28  1  0
 28 29  2  0
 28 30  1  0
 30  9  1  0
 21 12  1  0
 30 23  2  0
M  END
>  <Compound_ID>  (88) 
CHEMBL3701428

>  <Molecule Name>  (88) 
nan

>  <Molecular Weight>  (88) 
412.45

>  <AlogP>  (88) 
1.39

>  <Smiles>  (88) 
COC(=O)NCCNc1nc(-c2ccc(C(C)(C)O)nc2)cc2ncn(C)c(=O)c12

>  <Standard Type>  (88) 
IC50

>  <Standard Relation>  (88) 
'='

>  <Standard Units>  (88) 
nM

>  <Standard Value>  (88) 
91.0

>  <Assay ChEMBL ID>  (88) 
CHEMBL3705362

>  <Assay Description>  (88) 
Mobility-Shift kinase assay: Compounds of the examples provided herein were assessed for their ability to inhibit Syk kinase by utilizing Caliper Life Sciences' proprietary LabChip technology. The off-chip incubation mobility-shift kinase assay uses a microfluidic chip to measure the conversion of a fluorescent peptide substrate to a phosphorylated product. The reaction mixture, from a microtiter plate well, is introduced through a capillary sipper onto the chip, where the nonphosphorylated substrate and phosphorylated product are separated by electrophoresis and detected via laser induced fluorescence. The signature of the fluorescence signal over time reveals the extent of the reaction. The phosphorylated product migrates through the chip faster than the non-phosphorylated substrate, and signals from the two forms of the peptide appear as distinct peaks.

>  <BAO Format ID>  (88) 
BAO_0000357

>  <BAO Label>  (88) 
single protein format

>  <Assay Organism>  (88) 
Homo sapiens

>  <Target ChEMBL ID>  (88) 
CHEMBL2599

>  <Target Name>  (88) 
Tyrosine-protein kinase SYK

>  <Target Organism>  (88) 
Homo sapiens

>  <Target Type>  (88) 
SINGLE PROTEIN

>  <Document ChEMBL ID>  (88) 
CHEMBL3639055

>  <Source Description>  (88) 
BindingDB Database

>  <Document Journal>  (88) 
nan

>  <Document Year>  (88) 
2014.0

>  <Active>  (88) 
1.0

>  <bits>  (88) 
<rdkit.DataStructs.cDataStructs.ExplicitBitVect object at 0x00000193F3400190>

>  <Group>  (88) 
G2

$$$$

     RDKit          2D

 30 33  0  0  0  0  0  0  0  0999 V2000
   -3.9613  -13.8089    0.0000 C   0  0  0  0  0  0  0  0  0  0  0  0
   -4.1181  -12.3171    0.0000 C   0  0  0  0  0  0  0  0  0  0  0  0
   -5.4884  -11.7070    0.0000 O   0  0  0  0  0  0  0  0  0  0  0  0
   -2.9046  -11.4354    0.0000 O   0  0  0  0  0  0  0  0  0  0  0  0
   -3.0613   -9.9436    0.0000 C   0  0  0  0  0  0  0  0  0  0  0  0
   -1.8478   -9.0619    0.0000 C   0  0  0  0  0  0  0  0  0  0  0  0
   -2.0046   -7.5702    0.0000 N   0  0  0  0  0  0  0  0  0  0  0  0
   -0.8899   -6.5665    0.0000 C   0  0  0  0  0  0  0  0  0  0  0  0
   -1.5000   -5.1962    0.0000 C   0  0  0  0  0  0  0  0  0  0  0  0
   -0.7500   -3.8971    0.0000 C   0  0  0  0  0  0  0  0  0  0  0  0
    0.7500   -3.8971    0.0000 C   0  0  0  0  0  0  0  0  0  0  0  0
    1.5000   -2.5981    0.0000 C   0  0  0  0  0  0  0  0  0  0  0  0
    3.0000   -2.5981    0.0000 O   0  0  0  0  0  0  0  0  0  0  0  0
    3.7500   -3.8971    0.0000 C   0  0  0  0  0  0  0  0  0  0  0  0
    5.2500   -3.8971    0.0000 C   0  0  0  0  0  0  0  0  0  0  0  0
    3.0000   -5.1962    0.0000 C   0  0  0  0  0  0  0  0  0  0  0  0
    3.6101   -6.5665    0.0000 C   0  0  0  0  0  0  0  0  0  0  0  0
    2.4954   -7.5702    0.0000 N   0  0  0  0  0  0  0  0  0  0  0  0
    1.1963   -6.8202    0.0000 C   0  0  0  0  0  0  0  0  0  0  0  0
   -0.1740   -7.4303    0.0000 O   0  0  0  0  0  0  0  0  0  0  0  0
    1.5082   -5.3529    0.0000 C   0  0  0  0  0  0  0  0  0  0  0  0
    0.7500   -1.2990    0.0000 C   0  0  0  0  0  0  0  0  0  0  0  0
    1.5000    0.0000    0.0000 C   0  0  0  0  0  0  0  0  0  0  0  0
    0.7500    1.2990    0.0000 C   0  0  0  0  0  0  0  0  0  0  0  0
   -0.7500    1.2990    0.0000 C   0  0  0  0  0  0  0  0  0  0  0  0
   -1.5000    0.0000    0.0000 N   0  0  0  0  0  0  0  0  0  0  0  0
   -0.7500   -1.2990    0.0000 C   0  0  0  0  0  0  0  0  0  0  0  0
   -1.5000   -2.5981    0.0000 C   0  0  0  0  0  0  0  0  0  0  0  0
   -2.9918   -5.3529    0.0000 C   0  0  0  0  0  0  0  0  0  0  0  0
   -3.3037   -6.8202    0.0000 N   0  0  0  0  0  0  0  0  0  0  0  0
  1  2  1  0
  2  3  2  0
  2  4  1  0
  4  5  1  0
  5  6  1  0
  6  7  1  0
  7  8  1  0
  8  9  2  0
  9 10  1  0
 10 11  2  0
 11 12  1  0
 12 13  1  0
 13 14  1  0
 14 15  1  6
 14 16  1  0
 16 17  1  1
 17 18  1  0
 18 19  1  0
 19 20  2  0
 19 21  1  0
 12 22  2  0
 22 23  1  0
 23 24  2  0
 24 25  1  0
 25 26  2  0
 26 27  1  0
 27 28  2  0
  9 29  1  0
 29 30  2  0
 30  7  1  0
 28 10  1  0
 21 16  1  0
 27 22  1  0
M  END
>  <Compound_ID>  (89) 
CHEMBL3653847

>  <Molecule Name>  (89) 
nan

>  <Molecular Weight>  (89) 
408.46

>  <AlogP>  (89) 
2.56

>  <Smiles>  (89) 
CC(=O)OCCn1cc(-c2cc(O[C@H](C)[C@H]3CNC(=O)C3)c3cccnc3c2)cn1

>  <Standard Type>  (89) 
IC50

>  <Standard Relation>  (89) 
'='

>  <Standard Units>  (89) 
nM

>  <Standard Value>  (89) 
0.1

>  <Assay ChEMBL ID>  (89) 
CHEMBL3706124

>  <Assay Description>  (89) 
Kinase Assay: Recombinant human Syk (amino acids 342-635) was expressed as a fusion protein with an N-terminal GST tag, affinity-purified and deep-frozen at a concentration of approx. 50-100 uM in test buffer (25 mM HEPES pH7.5; 25 mM MgCl2; 5 mM MnCl2; 50 mM KCl; either 0.2% BSA or 0.2% HSA; 0.01% CHAPS; 100 uM Na3VO4; 0.5 mM DTT) and 10% glycerol at -80 C. until use.The catalytic activity of the GST-Syk kinase fusion protein was determined using the Kinase Glo Luminescence Kinase test (Promega; V6712). In this homogeneous test the amount of ATP remaining after the kinase reaction is quantified by a luciferin-luciferase reaction using luminescence. The luminescence signal obtained correlates with the amount of ATP still present and thus correlates inversely with the activity of the protein kinase.MethodThe test compounds were dissolved in 100% DMSO at a concentration of 10 mM and diluted in DMSO to a concentration of 1 mM.

>  <BAO Format ID>  (89) 
BAO_0000357

>  <BAO Label>  (89) 
single protein format

>  <Assay Organism>  (89) 
Homo sapiens

>  <Target ChEMBL ID>  (89) 
CHEMBL2599

>  <Target Name>  (89) 
Tyrosine-protein kinase SYK

>  <Target Organism>  (89) 
Homo sapiens

>  <Target Type>  (89) 
SINGLE PROTEIN

>  <Document ChEMBL ID>  (89) 
CHEMBL3638790

>  <Source Description>  (89) 
BindingDB Database

>  <Document Journal>  (89) 
nan

>  <Document Year>  (89) 
2014.0

>  <Active>  (89) 
1.0

>  <bits>  (89) 
<rdkit.DataStructs.cDataStructs.ExplicitBitVect object at 0x00000193F3402260>

>  <Group>  (89) 
G2

$$$$

     RDKit          2D

 29 33  0  0  0  0  0  0  0  0999 V2000
    6.2011   -6.9341    0.0000 C   0  0  0  0  0  0  0  0  0  0  0  0
    4.8308   -6.3240    0.0000 N   0  0  0  0  0  0  0  0  0  0  0  0
    3.6172   -7.2057    0.0000 C   0  0  0  0  0  0  0  0  0  0  0  0
    4.6740   -4.8322    0.0000 C   0  0  0  0  0  0  0  0  0  0  0  0
    3.3037   -4.2221    0.0000 C   0  0  0  0  0  0  0  0  0  0  0  0
    2.9918   -2.7549    0.0000 C   0  0  0  0  0  0  0  0  0  0  0  0
    1.5000   -2.5981    0.0000 C   0  0  0  0  0  0  0  0  0  0  0  0
    0.7500   -1.2990    0.0000 C   0  0  0  0  0  0  0  0  0  0  0  0
    1.5000    0.0000    0.0000 C   0  0  0  0  0  0  0  0  0  0  0  0
    0.7500    1.2990    0.0000 C   0  0  0  0  0  0  0  0  0  0  0  0
   -0.7500    1.2990    0.0000 N   0  0  0  0  0  0  0  0  0  0  0  0
   -1.5000    0.0000    0.0000 C   0  0  0  0  0  0  0  0  0  0  0  0
   -2.9672   -0.3119    0.0000 N   0  0  0  0  0  0  0  0  0  0  0  0
   -3.1240   -1.8037    0.0000 C   0  0  0  0  0  0  0  0  0  0  0  0
   -4.4231   -2.5537    0.0000 C   0  0  0  0  0  0  0  0  0  0  0  0
   -4.4231   -4.0537    0.0000 C   0  0  0  0  0  0  0  0  0  0  0  0
   -5.7221   -4.8037    0.0000 C   0  0  0  0  0  0  0  0  0  0  0  0
   -7.0211   -4.0537    0.0000 C   0  0  0  0  0  0  0  0  0  0  0  0
   -7.0211   -2.5537    0.0000 C   0  0  0  0  0  0  0  0  0  0  0  0
   -5.7221   -1.8037    0.0000 C   0  0  0  0  0  0  0  0  0  0  0  0
   -6.0340   -0.3364    0.0000 C   0  0  0  0  0  0  0  0  0  0  0  0
   -7.5257   -0.1796    0.0000 C   0  0  0  0  0  0  0  0  0  0  0  0
   -8.1358   -1.5500    0.0000 N   0  0  0  0  0  0  0  0  0  0  0  0
   -9.6031   -1.8618    0.0000 C   0  0  0  0  0  0  0  0  0  0  0  0
   -1.7537   -2.4138    0.0000 N   0  0  0  0  0  0  0  0  0  0  0  0
   -0.7500   -1.2990    0.0000 C   0  0  0  0  0  0  0  0  0  0  0  0
    0.8899   -3.9684    0.0000 N   0  0  0  0  0  0  0  0  0  0  0  0
    2.0046   -4.9721    0.0000 N   0  0  0  0  0  0  0  0  0  0  0  0
    1.8478   -6.4639    0.0000 C   0  0  0  0  0  0  0  0  0  0  0  0
  1  2  1  0
  2  3  1  0
  2  4  1  0
  4  5  1  0
  5  6  2  0
  6  7  1  0
  7  8  1  0
  8  9  2  0
  9 10  1  0
 10 11  2  0
 11 12  1  0
 12 13  1  0
 13 14  1  0
 14 15  1  0
 15 16  2  0
 16 17  1  0
 17 18  2  0
 18 19  1  0
 19 20  2  0
 20 21  1  0
 21 22  2  0
 22 23  1  0
 23 24  1  0
 14 25  2  0
 25 26  1  0
  7 27  2  0
 27 28  1  0
 28 29  1  0
 28  5  1  0
 26  8  1  0
 26 12  2  0
 20 15  1  0
 23 19  1  0
M  END
>  <Compound_ID>  (90) 
CHEMBL4750942

>  <Molecule Name>  (90) 
nan

>  <Molecular Weight>  (90) 
385.48

>  <AlogP>  (90) 
3.58

>  <Smiles>  (90) 
CN(C)Cc1cc(-c2ccnc3[nH]c(-c4cccc5c4ccn5C)nc23)nn1C

>  <Standard Type>  (90) 
IC50

>  <Standard Relation>  (90) 
'='

>  <Standard Units>  (90) 
nM

>  <Standard Value>  (90) 
2.8

>  <Assay ChEMBL ID>  (90) 
CHEMBL4669219

>  <Assay Description>  (90) 
Inhibition of SYK (unknown origin)

>  <BAO Format ID>  (90) 
BAO_0000357

>  <BAO Label>  (90) 
single protein format

>  <Assay Organism>  (90) 
Homo sapiens

>  <Target ChEMBL ID>  (90) 
CHEMBL2599

>  <Target Name>  (90) 
Tyrosine-protein kinase SYK

>  <Target Organism>  (90) 
Homo sapiens

>  <Target Type>  (90) 
SINGLE PROTEIN

>  <Document ChEMBL ID>  (90) 
CHEMBL4665716

>  <Source Description>  (90) 
Scientific Literature

>  <Document Journal>  (90) 
Bioorg Med Chem Lett

>  <Document Year>  (90) 
2020.0

>  <Active>  (90) 
1.0

>  <bits>  (90) 
<rdkit.DataStructs.cDataStructs.ExplicitBitVect object at 0x00000193F3402B20>

>  <Group>  (90) 
G2

$$$$

     RDKit          2D

 33 36  0  0  0  0  0  0  0  0999 V2000
   -7.5000   -7.7942    0.0000 C   0  0  0  0  0  0  0  0  0  0  0  0
   -6.0000   -7.7942    0.0000 O   0  0  0  0  0  0  0  0  0  0  0  0
   -5.2500   -6.4952    0.0000 C   0  0  0  0  0  0  0  0  0  0  0  0
   -6.0000   -5.1962    0.0000 C   0  0  0  0  0  0  0  0  0  0  0  0
   -5.2500   -3.8971    0.0000 C   0  0  0  0  0  0  0  0  0  0  0  0
   -3.7500   -3.8971    0.0000 N   0  0  0  0  0  0  0  0  0  0  0  0
   -3.0000   -5.1962    0.0000 C   0  0  0  0  0  0  0  0  0  0  0  0
   -1.5000   -5.1962    0.0000 C   0  0  0  0  0  0  0  0  0  0  0  0
   -0.7500   -6.4952    0.0000 C   0  0  0  0  0  0  0  0  0  0  0  0
    0.7500   -6.4952    0.0000 C   0  0  0  0  0  0  0  0  0  0  0  0
    1.5000   -5.1962    0.0000 N   0  0  0  0  0  0  0  0  0  0  0  0
    0.7500   -3.8971    0.0000 C   0  0  0  0  0  0  0  0  0  0  0  0
    1.5000   -2.5981    0.0000 N   0  0  0  0  0  0  0  0  0  0  0  0
    0.7500   -1.2990    0.0000 C   0  0  0  0  0  0  0  0  0  0  0  0
    1.5000    0.0000    0.0000 C   0  0  0  0  0  0  0  0  0  0  0  0
    0.7500    1.2990    0.0000 C   0  0  0  0  0  0  0  0  0  0  0  0
   -0.7500    1.2990    0.0000 C   0  0  0  0  0  0  0  0  0  0  0  0
   -1.7537    2.4138    0.0000 N   0  0  0  0  0  0  0  0  0  0  0  0
   -3.1240    1.8037    0.0000 C   0  0  0  0  0  0  0  0  0  0  0  0
   -4.4231    2.5537    0.0000 C   0  0  0  0  0  0  0  0  0  0  0  0
   -5.7221    1.8037    0.0000 O   0  0  0  0  0  0  0  0  0  0  0  0
   -4.4231    4.0537    0.0000 N   0  0  0  0  0  0  0  0  0  0  0  0
   -5.7221    4.8037    0.0000 C   0  0  0  0  0  0  0  0  0  0  0  0
   -5.7221    6.3037    0.0000 C   0  0  0  0  0  0  0  0  0  0  0  0
   -7.0211    7.0537    0.0000 C   0  0  0  0  0  0  0  0  0  0  0  0
   -7.0211    8.5537    0.0000 N   0  0  0  0  0  0  0  0  0  0  0  0
   -8.3202    9.3037    0.0000 C   0  0  0  0  0  0  0  0  0  0  0  0
   -5.7221    9.3037    0.0000 C   0  0  0  0  0  0  0  0  0  0  0  0
   -2.9672    0.3119    0.0000 C   0  0  0  0  0  0  0  0  0  0  0  0
   -1.5000    0.0000    0.0000 C   0  0  0  0  0  0  0  0  0  0  0  0
   -0.7500   -1.2990    0.0000 C   0  0  0  0  0  0  0  0  0  0  0  0
   -0.7500   -3.8971    0.0000 N   0  0  0  0  0  0  0  0  0  0  0  0
   -3.7500   -6.4952    0.0000 C   0  0  0  0  0  0  0  0  0  0  0  0
  1  2  1  0
  2  3  1  0
  3  4  2  0
  4  5  1  0
  5  6  2  0
  6  7  1  0
  7  8  1  0
  8  9  2  0
  9 10  1  0
 10 11  2  0
 11 12  1  0
 12 13  1  0
 13 14  1  0
 14 15  2  0
 15 16  1  0
 16 17  2  0
 17 18  1  0
 18 19  1  0
 19 20  1  0
 20 21  2  0
 20 22  1  0
 22 23  1  0
 23 24  1  0
 24 25  1  0
 25 26  1  0
 26 27  1  0
 26 28  1  0
 19 29  2  0
 29 30  1  0
 30 31  2  0
 12 32  2  0
  7 33  2  0
 33  3  1  0
 32  8  1  0
 31 14  1  0
 30 17  1  0
M  END
>  <Compound_ID>  (91) 
CHEMBL3641515

>  <Molecule Name>  (91) 
nan

>  <Molecular Weight>  (91) 
445.53

>  <AlogP>  (91) 
3.45

>  <Smiles>  (91) 
COc1ccnc(-c2ccnc(Nc3ccc4[nH]c(C(=O)NCCCN(C)C)cc4c3)n2)c1

>  <Standard Type>  (91) 
IC50

>  <Standard Relation>  (91) 
'='

>  <Standard Units>  (91) 
nM

>  <Standard Value>  (91) 
8.6

>  <Assay ChEMBL ID>  (91) 
CHEMBL3705803

>  <Assay Description>  (91) 
Kinase Glo Luminescence Kinase Assay: Recombinant human Syk (amino acids 342-635) was expressed as a fusion protein with an N-terminal GST tag, affinity-purified and deep-frozen at a concentration of approx. 50-100 uM in test buffer (25 mM HEPES pH7.5; 25 mM MgCl2; 5 mM MnCl2; 50 mM KCl; 0.2% BSA; 0.01% CHAPS; 100 uM Na3VO4; 0.5 mM DTT) and 10% glycerol at -80 C until use. The catalytic activity of the GST-Syk kinase fusion protein was determined using the Kinase Glo Luminescence Kinase test (Promega; V6712). In this homogeneous test the amount of ATP remaining after the kinase reaction is quantified by a luciferin-luciferase reaction using luminescence. The luminescence signal obtained correlates with the amount of ATP still present and thus correlates inversely with the activity of the protein kinase. The test compounds were dissolved in 100% DMSO at a concentration of 10 mM and diluted in DMSO to a concentration of 1 mM.

>  <BAO Format ID>  (91) 
BAO_0000357

>  <BAO Label>  (91) 
single protein format

>  <Assay Organism>  (91) 
Homo sapiens

>  <Target ChEMBL ID>  (91) 
CHEMBL2599

>  <Target Name>  (91) 
Tyrosine-protein kinase SYK

>  <Target Organism>  (91) 
Homo sapiens

>  <Target Type>  (91) 
SINGLE PROTEIN

>  <Document ChEMBL ID>  (91) 
CHEMBL3638486

>  <Source Description>  (91) 
BindingDB Database

>  <Document Journal>  (91) 
nan

>  <Document Year>  (91) 
2014.0

>  <Active>  (91) 
1.0

>  <bits>  (91) 
<rdkit.DataStructs.cDataStructs.ExplicitBitVect object at 0x00000193F3403450>

>  <Group>  (91) 
G2

$$$$

     RDKit          2D

 35 39  0  0  0  0  0  0  0  0999 V2000
   -6.0000   -7.7942    0.0000 N   0  0  0  0  0  0  0  0  0  0  0  0
   -5.2500   -6.4952    0.0000 C   0  0  0  0  0  0  0  0  0  0  0  0
   -3.7500   -6.4952    0.0000 O   0  0  0  0  0  0  0  0  0  0  0  0
   -6.0000   -5.1962    0.0000 C   0  0  0  0  0  0  0  0  0  0  0  0
   -7.5000   -5.1962    0.0000 C   0  0  0  0  0  0  0  0  0  0  0  0
   -8.2500   -3.8971    0.0000 C   0  0  0  0  0  0  0  0  0  0  0  0
   -7.5000   -2.5981    0.0000 C   0  0  0  0  0  0  0  0  0  0  0  0
   -6.0000   -2.5981    0.0000 N   0  0  0  0  0  0  0  0  0  0  0  0
   -5.2500   -3.8971    0.0000 C   0  0  0  0  0  0  0  0  0  0  0  0
   -3.7500   -3.8971    0.0000 C   0  0  0  0  0  0  0  0  0  0  0  0
   -3.0000   -2.5981    0.0000 O   0  0  0  0  0  0  0  0  0  0  0  0
   -1.5000   -2.5981    0.0000 C   0  0  0  0  0  0  0  0  0  0  0  0
   -0.7500   -3.8971    0.0000 C   0  0  0  0  0  0  0  0  0  0  0  0
    0.7500   -3.8971    0.0000 C   0  0  0  0  0  0  0  0  0  0  0  0
    1.5000   -5.1962    0.0000 C   0  0  0  0  0  0  0  0  0  0  0  0
    0.7500   -6.4952    0.0000 C   0  0  0  0  0  0  0  0  0  0  0  0
    1.5000   -7.7942    0.0000 C   0  0  0  0  0  0  0  0  0  0  0  0
    3.0000   -7.7942    0.0000 C   0  0  0  0  0  0  0  0  0  0  0  0
    3.7500   -9.0933    0.0000 C   0  0  0  0  0  0  0  0  0  0  0  0
    3.0000  -10.3923    0.0000 N   0  0  0  0  0  0  0  0  0  0  0  0
    1.5000  -10.3923    0.0000 C   0  0  0  0  0  0  0  0  0  0  0  0
    0.7500  -11.6913    0.0000 C   0  0  0  0  0  0  0  0  0  0  0  0
    1.5000  -12.9904    0.0000 C   0  0  0  0  0  0  0  0  0  0  0  0
    3.0000  -12.9904    0.0000 C   0  0  0  0  0  0  0  0  0  0  0  0
    3.7500  -11.6913    0.0000 C   0  0  0  0  0  0  0  0  0  0  0  0
    5.2500  -11.6913    0.0000 O   0  0  0  0  0  0  0  0  0  0  0  0
    3.7500   -6.4952    0.0000 C   0  0  0  0  0  0  0  0  0  0  0  0
    3.0000   -5.1962    0.0000 C   0  0  0  0  0  0  0  0  0  0  0  0
    1.5000   -2.5981    0.0000 C   0  0  0  0  0  0  0  0  0  0  0  0
    0.7500   -1.2990    0.0000 C   0  0  0  0  0  0  0  0  0  0  0  0
    1.5000    0.0000    0.0000 N   0  0  0  0  0  0  0  0  0  0  0  0
    0.7500    1.2990    0.0000 C   0  0  0  0  0  0  0  0  0  0  0  0
   -0.7500    1.2990    0.0000 C   0  0  0  0  0  0  0  0  0  0  0  0
   -1.5000    0.0000    0.0000 C   0  0  0  0  0  0  0  0  0  0  0  0
   -0.7500   -1.2990    0.0000 C   0  0  0  0  0  0  0  0  0  0  0  0
  1  2  1  0
  2  3  2  0
  2  4  1  0
  4  5  2  0
  5  6  1  0
  6  7  2  0
  7  8  1  0
  8  9  2  0
  9 10  1  0
 10 11  1  0
 11 12  1  0
 12 13  2  0
 13 14  1  0
 14 15  1  0
 15 16  2  0
 16 17  1  0
 17 18  2  0
 18 19  1  0
 19 20  1  0
 20 21  1  0
 21 22  1  0
 22 23  1  0
 23 24  1  0
 24 25  1  0
 25 26  2  0
 18 27  1  0
 27 28  2  0
 14 29  2  0
 29 30  1  0
 30 31  2  0
 31 32  1  0
 32 33  2  0
 33 34  1  0
 34 35  2  0
  9  4  1  0
 35 12  1  0
 28 15  1  0
 35 30  1  0
 25 20  1  0
M  END
>  <Compound_ID>  (92) 
CHEMBL3653782

>  <Molecule Name>  (92) 
nan

>  <Molecular Weight>  (92) 
466.54

>  <AlogP>  (92) 
4.49

>  <Smiles>  (92) 
NC(=O)c1cccnc1COc1cc(-c2ccc(CN3CCCCC3=O)cc2)cc2ncccc12

>  <Standard Type>  (92) 
IC50

>  <Standard Relation>  (92) 
'='

>  <Standard Units>  (92) 
nM

>  <Standard Value>  (92) 
2.2

>  <Assay ChEMBL ID>  (92) 
CHEMBL3706124

>  <Assay Description>  (92) 
Kinase Assay: Recombinant human Syk (amino acids 342-635) was expressed as a fusion protein with an N-terminal GST tag, affinity-purified and deep-frozen at a concentration of approx. 50-100 uM in test buffer (25 mM HEPES pH7.5; 25 mM MgCl2; 5 mM MnCl2; 50 mM KCl; either 0.2% BSA or 0.2% HSA; 0.01% CHAPS; 100 uM Na3VO4; 0.5 mM DTT) and 10% glycerol at -80 C. until use.The catalytic activity of the GST-Syk kinase fusion protein was determined using the Kinase Glo Luminescence Kinase test (Promega; V6712). In this homogeneous test the amount of ATP remaining after the kinase reaction is quantified by a luciferin-luciferase reaction using luminescence. The luminescence signal obtained correlates with the amount of ATP still present and thus correlates inversely with the activity of the protein kinase.MethodThe test compounds were dissolved in 100% DMSO at a concentration of 10 mM and diluted in DMSO to a concentration of 1 mM.

>  <BAO Format ID>  (92) 
BAO_0000357

>  <BAO Label>  (92) 
single protein format

>  <Assay Organism>  (92) 
Homo sapiens

>  <Target ChEMBL ID>  (92) 
CHEMBL2599

>  <Target Name>  (92) 
Tyrosine-protein kinase SYK

>  <Target Organism>  (92) 
Homo sapiens

>  <Target Type>  (92) 
SINGLE PROTEIN

>  <Document ChEMBL ID>  (92) 
CHEMBL3638790

>  <Source Description>  (92) 
BindingDB Database

>  <Document Journal>  (92) 
nan

>  <Document Year>  (92) 
2014.0

>  <Active>  (92) 
1.0

>  <bits>  (92) 
<rdkit.DataStructs.cDataStructs.ExplicitBitVect object at 0x00000193F34018C0>

>  <Group>  (92) 
G2

$$$$

     RDKit          2D

 25 27  0  0  0  0  0  0  0  0999 V2000
    3.0000    0.0000    0.0000 C   0  0  0  0  0  0  0  0  0  0  0  0
    1.5000    0.0000    0.0000 C   0  0  0  0  0  0  0  0  0  0  0  0
    0.7500   -1.2990    0.0000 C   0  0  0  0  0  0  0  0  0  0  0  0
   -0.7500   -1.2990    0.0000 C   0  0  0  0  0  0  0  0  0  0  0  0
   -1.5000   -2.5981    0.0000 N   0  0  0  0  0  0  0  0  0  0  0  0
   -3.0000   -2.5981    0.0000 C   0  0  0  0  0  0  0  0  0  0  0  0
   -3.7500   -1.2990    0.0000 C   0  0  0  0  0  0  0  0  0  0  0  0
   -5.2500   -1.2990    0.0000 C   0  0  0  0  0  0  0  0  0  0  0  0
   -6.0000    0.0000    0.0000 C   0  0  0  0  0  0  0  0  0  0  0  0
   -6.7500    1.2990    0.0000 F   0  0  0  0  0  0  0  0  0  0  0  0
   -4.7010    0.7500    0.0000 F   0  0  0  0  0  0  0  0  0  0  0  0
   -7.2990   -0.7500    0.0000 F   0  0  0  0  0  0  0  0  0  0  0  0
   -6.0000   -2.5981    0.0000 C   0  0  0  0  0  0  0  0  0  0  0  0
   -5.2500   -3.8971    0.0000 C   0  0  0  0  0  0  0  0  0  0  0  0
   -3.7500   -3.8971    0.0000 N   0  0  0  0  0  0  0  0  0  0  0  0
   -1.5000    0.0000    0.0000 N   0  0  0  0  0  0  0  0  0  0  0  0
   -0.7500    1.2990    0.0000 C   0  0  0  0  0  0  0  0  0  0  0  0
   -1.5000    2.5981    0.0000 C   0  0  0  0  0  0  0  0  0  0  0  0
   -0.7500    3.8971    0.0000 C   0  0  0  0  0  0  0  0  0  0  0  0
   -1.5000    5.1962    0.0000 C   0  0  0  0  0  0  0  0  0  0  0  0
   -3.0000    5.1962    0.0000 C   0  0  0  0  0  0  0  0  0  0  0  0
   -3.7500    6.4952    0.0000 F   0  0  0  0  0  0  0  0  0  0  0  0
   -3.7500    3.8971    0.0000 N   0  0  0  0  0  0  0  0  0  0  0  0
   -3.0000    2.5981    0.0000 C   0  0  0  0  0  0  0  0  0  0  0  0
    0.7500    1.2990    0.0000 C   0  0  0  0  0  0  0  0  0  0  0  0
  1  2  1  0
  2  3  2  0
  3  4  1  0
  4  5  1  0
  5  6  1  0
  6  7  2  0
  7  8  1  0
  8  9  1  0
  9 10  1  0
  9 11  1  0
  9 12  1  0
  8 13  2  0
 13 14  1  0
 14 15  2  0
  4 16  2  0
 16 17  1  0
 17 18  1  0
 18 19  2  0
 19 20  1  0
 20 21  2  0
 21 22  1  0
 21 23  1  0
 23 24  2  0
 17 25  2  0
 25  2  1  0
 15  6  1  0
 24 18  1  0
M  END
>  <Compound_ID>  (93) 
CHEMBL3905068

>  <Molecule Name>  (93) 
nan

>  <Molecular Weight>  (93) 
348.3

>  <AlogP>  (93) 
4.75

>  <Smiles>  (93) 
Cc1cc(Nc2cc(C(F)(F)F)ccn2)nc(-c2ccc(F)nc2)c1

>  <Standard Type>  (93) 
IC50

>  <Standard Relation>  (93) 
'='

>  <Standard Units>  (93) 
nM

>  <Standard Value>  (93) 
38.0

>  <Assay ChEMBL ID>  (93) 
CHEMBL3887083

>  <Assay Description>  (93) 
Homogeneous Time-Resolved Fluorescence (HTRF) Assay: A recombinant GST-hSyk fusion protein was used to measure potency of compounds to inhibit human Syk activity. The recombinant human GST-Syk (Carna Biosciences #08-176) (5 pM final concentration) was incubated with various concentrations of the inhibitor diluted in DMSO (0.1% final concentration) for 10 minutes at room temperature in 15 mM Tris-HCl (pH 7.5), 0.01% tween 20, 2 mM DTT in 384 well plate format. To initiate the reaction the biotinylated substrate peptide (250 nM final concentration) that contains the phosphorylation site for Syk was added with magnesium (5 mM final concentration) and ATP (25 uM final concentration). Final volume of the reaction was 10 uL. Phosphorylation of the peptide was allowed to proceed for 45x at room temperature. To quench the reaction and detect the phosphorylated product, 2 nM of a Europium-anti-phosphotyrosine antibody (Perkin Elmer #AD0161) and 70 nM SA-APC (Perkin-Elmer #CR130-100) were added together in 15 mM Tris pH 7.5.

>  <BAO Format ID>  (93) 
BAO_0000357

>  <BAO Label>  (93) 
single protein format

>  <Assay Organism>  (93) 
Homo sapiens

>  <Target ChEMBL ID>  (93) 
CHEMBL2599

>  <Target Name>  (93) 
Tyrosine-protein kinase SYK

>  <Target Organism>  (93) 
Homo sapiens

>  <Target Type>  (93) 
SINGLE PROTEIN

>  <Document ChEMBL ID>  (93) 
CHEMBL3886158

>  <Source Description>  (93) 
BindingDB Database

>  <Document Journal>  (93) 
nan

>  <Document Year>  (93) 
2015.0

>  <Active>  (93) 
1.0

>  <bits>  (93) 
<rdkit.DataStructs.cDataStructs.ExplicitBitVect object at 0x00000193F3402C70>

>  <Group>  (93) 
G2

$$$$

     RDKit          2D

 39 44  0  0  0  0  0  0  0  0999 V2000
    5.2500   -1.2990    0.0000 C   0  0  0  0  0  0  0  0  0  0  0  0
    3.7500   -1.2990    0.0000 O   0  0  0  0  0  0  0  0  0  0  0  0
    3.0000    0.0000    0.0000 C   0  0  0  0  0  0  0  0  0  0  0  0
    3.7500    1.2990    0.0000 O   0  0  0  0  0  0  0  0  0  0  0  0
    1.5000    0.0000    0.0000 C   0  0  0  0  0  0  0  0  0  0  0  0
    0.7500   -1.2990    0.0000 C   0  0  0  0  0  0  0  0  0  0  0  0
   -0.7500   -1.2990    0.0000 C   0  0  0  0  0  0  0  0  0  0  0  0
   -1.5000    0.0000    0.0000 C   0  0  0  0  0  0  0  0  0  0  0  0
   -0.7500    1.2990    0.0000 C   0  0  0  0  0  0  0  0  0  0  0  0
    0.7500    1.2990    0.0000 C   0  0  0  0  0  0  0  0  0  0  0  0
   -1.5000    2.5981    0.0000 C   0  0  0  0  0  0  0  0  0  0  0  0
   -3.0000    2.5981    0.0000 C   0  0  0  0  0  0  0  0  0  0  0  0
   -3.7500    1.2990    0.0000 C   0  0  0  0  0  0  0  0  0  0  0  0
   -3.0000    0.0000    0.0000 C   0  0  0  0  0  0  0  0  0  0  0  0
   -4.4095   -0.5130    0.0000 O   0  0  0  0  0  0  0  0  0  0  0  0
   -2.7395   -1.4772    0.0000 C   0  0  0  0  0  0  0  0  0  0  0  0
   -1.3913   -2.1348    0.0000 N   0  0  0  0  0  0  0  0  0  0  0  0
   -1.6001   -3.6202    0.0000 C   0  0  0  0  0  0  0  0  0  0  0  0
   -3.0773   -3.8806    0.0000 C   0  0  0  0  0  0  0  0  0  0  0  0
   -3.7349   -5.2288    0.0000 C   0  0  0  0  0  0  0  0  0  0  0  0
   -5.2312   -5.3335    0.0000 C   0  0  0  0  0  0  0  0  0  0  0  0
   -5.8888   -6.6817    0.0000 C   0  0  0  0  0  0  0  0  0  0  0  0
   -7.3851   -6.7863    0.0000 C   0  0  0  0  0  0  0  0  0  0  0  0
   -5.0500   -7.9252    0.0000 C   0  0  0  0  0  0  0  0  0  0  0  0
   -3.5536   -7.8206    0.0000 C   0  0  0  0  0  0  0  0  0  0  0  0
   -2.7148   -9.0641    0.0000 N   0  0  0  0  0  0  0  0  0  0  0  0
   -3.3724  -10.4123    0.0000 C   0  0  0  0  0  0  0  0  0  0  0  0
   -4.8687  -10.5170    0.0000 C   0  0  0  0  0  0  0  0  0  0  0  0
   -5.5263  -11.8652    0.0000 C   0  0  0  0  0  0  0  0  0  0  0  0
   -7.0226  -11.9698    0.0000 C   0  0  0  0  0  0  0  0  0  0  0  0
   -7.8175  -13.2419    0.0000 C   0  0  0  0  0  0  0  0  0  0  0  0
   -9.2730  -12.8790    0.0000 N   0  0  0  0  0  0  0  0  0  0  0  0
   -9.3776  -11.3826    0.0000 N   0  0  0  0  0  0  0  0  0  0  0  0
   -7.9868  -10.8207    0.0000 N   0  0  0  0  0  0  0  0  0  0  0  0
   -4.6875  -13.1087    0.0000 C   0  0  0  0  0  0  0  0  0  0  0  0
   -3.1912  -13.0041    0.0000 C   0  0  0  0  0  0  0  0  0  0  0  0
   -2.5336  -11.6559    0.0000 N   0  0  0  0  0  0  0  0  0  0  0  0
   -2.8961   -6.4724    0.0000 N   0  0  0  0  0  0  0  0  0  0  0  0
   -3.7815   -2.5562    0.0000 S   0  0  0  0  0  0  0  0  0  0  0  0
  1  2  1  0
  2  3  1  0
  3  4  2  0
  3  5  1  0
  5  6  2  0
  6  7  1  0
  7  8  2  0
  8  9  1  0
  9 10  2  0
  9 11  1  0
 11 12  1  0
 12 13  1  0
 13 14  1  0
 14 15  1  6
 14 16  1  0
 16 17  2  0
 17 18  1  0
 18 19  2  0
 19 20  1  0
 20 21  2  0
 21 22  1  0
 22 23  1  0
 22 24  2  0
 24 25  1  0
 25 26  1  0
 26 27  1  0
 27 28  2  0
 28 29  1  0
 29 30  1  0
 30 31  2  0
 31 32  1  0
 32 33  1  0
 33 34  2  0
 29 35  2  0
 35 36  1  0
 36 37  2  0
 25 38  2  0
 19 39  1  0
 10  5  1  0
 39 16  1  0
 14  8  1  0
 38 20  1  0
 37 27  1  0
 34 30  1  0
M  END
>  <Compound_ID>  (94) 
CHEMBL3698400

>  <Molecule Name>  (94) 
nan

>  <Molecular Weight>  (94) 
539.62

>  <AlogP>  (94) 
4.80

>  <Smiles>  (94) 
COC(=O)c1ccc2c(c1)CCC[C@]2(O)c1ncc(-c2cc(C)cc(Nc3cc(-c4c[nH]nn4)ccn3)n2)s1

>  <Standard Type>  (94) 
IC50

>  <Standard Relation>  (94) 
'='

>  <Standard Units>  (94) 
nM

>  <Standard Value>  (94) 
1.62

>  <Assay ChEMBL ID>  (94) 
CHEMBL3706005

>  <Assay Description>  (94) 
Homogeneous Time-Resolved Fluorescence Assay: A recombinant GST-hSyk fusion protein was used to measure potency of compounds to inhibit human Syk activity. The recombinant human GST-Syk (Cama Biosciences #08-176) (5 pM final concentration) was incubated with various concentrations of the inhibitor diluted in DMSO (0.1% final concentration) for 10 minutes at rt in 15 mM Tris-HCl (pH 7.5), 0.01% tween 20, 2 mM DTT in 384 well plate format. To initiate the reaction the biotinylated substrate peptide (250 nM final concentration) that contains the phosphorylation site for Syk was added with magnesium (5 mM final concentration) and ATP (25 uM final concentration). Final volume of the reaction was 10 uL. Phosphorylation of the peptide was allowed to proceed for 45' at rt. To quench the reaction and detect the phosphorylated product, 2 nM of a Europium-anti-phosphotyrosine antibody (Perkin Elmer #AD0161) and 70 nM SA-APC (Perkin-Elmer #CR130-100) were added together in 15 mM Tris pH 7.5, 40 mM EDTA, 0.01% tween 20.

>  <BAO Format ID>  (94) 
BAO_0000357

>  <BAO Label>  (94) 
single protein format

>  <Assay Organism>  (94) 
Homo sapiens

>  <Target ChEMBL ID>  (94) 
CHEMBL2599

>  <Target Name>  (94) 
Tyrosine-protein kinase SYK

>  <Target Organism>  (94) 
Homo sapiens

>  <Target Type>  (94) 
SINGLE PROTEIN

>  <Document ChEMBL ID>  (94) 
CHEMBL3639224

>  <Source Description>  (94) 
BindingDB Database

>  <Document Journal>  (94) 
nan

>  <Document Year>  (94) 
2014.0

>  <Active>  (94) 
1.0

>  <bits>  (94) 
<rdkit.DataStructs.cDataStructs.ExplicitBitVect object at 0x00000193F3402810>

>  <Group>  (94) 
G2

$$$$

     RDKit          2D

 25 27  0  0  0  0  0  0  0  0999 V2000
    3.0000    0.0000    0.0000 C   0  0  0  0  0  0  0  0  0  0  0  0
    1.5000    0.0000    0.0000 C   0  0  0  0  0  0  0  0  0  0  0  0
    0.7500   -1.2990    0.0000 C   0  0  0  0  0  0  0  0  0  0  0  0
   -0.7500   -1.2990    0.0000 C   0  0  0  0  0  0  0  0  0  0  0  0
   -1.5000    0.0000    0.0000 C   0  0  0  0  0  0  0  0  0  0  0  0
   -0.7500    1.2990    0.0000 C   0  0  0  0  0  0  0  0  0  0  0  0
   -1.5000    2.5981    0.0000 N   0  0  0  0  0  0  0  0  0  0  0  0
   -0.7500    3.8971    0.0000 C   0  0  0  0  0  0  0  0  0  0  0  0
    0.7500    3.8971    0.0000 N   0  0  0  0  0  0  0  0  0  0  0  0
    1.5000    5.1962    0.0000 C   0  0  0  0  0  0  0  0  0  0  0  0
    3.0000    5.1962    0.0000 N   0  0  0  0  0  0  0  0  0  0  0  0
    3.7500    3.8971    0.0000 C   0  0  0  0  0  0  0  0  0  0  0  0
    3.0000    2.5981    0.0000 C   0  0  0  0  0  0  0  0  0  0  0  0
    3.7500    1.2990    0.0000 C   0  0  0  0  0  0  0  0  0  0  0  0
    5.2500    1.2990    0.0000 C   0  0  0  0  0  0  0  0  0  0  0  0
    6.0000    2.5981    0.0000 C   0  0  0  0  0  0  0  0  0  0  0  0
    5.2500    3.8971    0.0000 C   0  0  0  0  0  0  0  0  0  0  0  0
    6.0000    5.1962    0.0000 N   0  0  0  0  0  0  0  0  0  0  0  0
    0.7500    6.4952    0.0000 N   0  0  0  0  0  0  0  0  0  0  0  0
   -0.7500    6.4952    0.0000 C   0  0  0  0  0  0  0  0  0  0  0  0
   -1.5000    5.1962    0.0000 C   0  0  0  0  0  0  0  0  0  0  0  0
   -3.0000    5.1962    0.0000 C   0  0  0  0  0  0  0  0  0  0  0  0
   -3.7500    6.4952    0.0000 N   0  0  0  0  0  0  0  0  0  0  0  0
   -3.7500    3.8971    0.0000 O   0  0  0  0  0  0  0  0  0  0  0  0
    0.7500    1.2990    0.0000 C   0  0  0  0  0  0  0  0  0  0  0  0
  1  2  1  0
  2  3  2  0
  3  4  1  0
  4  5  2  0
  5  6  1  0
  6  7  1  0
  7  8  1  0
  8  9  2  0
  9 10  1  0
 10 11  1  0
 12 11  1  6
 12 13  1  0
 13 14  1  0
 14 15  1  0
 15 16  1  0
 16 17  1  0
 17 18  1  6
 10 19  2  0
 19 20  1  0
 20 21  2  0
 21 22  1  0
 22 23  1  0
 22 24  2  0
  6 25  2  0
 25  2  1  0
 21  8  1  0
 17 12  1  0
M  END
>  <Compound_ID>  (95) 
CHEMBL1835064

>  <Molecule Name>  (95) 
nan

>  <Molecular Weight>  (95) 
340.43

>  <AlogP>  (95) 
2.31

>  <Smiles>  (95) 
Cc1cccc(Nc2nc(N[C@H]3CCCC[C@H]3N)ncc2C(N)=O)c1

>  <Standard Type>  (95) 
IC50

>  <Standard Relation>  (95) 
'='

>  <Standard Units>  (95) 
nM

>  <Standard Value>  (95) 
79.43

>  <Assay ChEMBL ID>  (95) 
CHEMBL1838853

>  <Assay Description>  (95) 
Inhibition of human full-length recombinant 6His-SYK assessed as phosphorylation of Biotin-AAAEEIYGEI substrate after 60 mins by by TR-FRET assay

>  <BAO Format ID>  (95) 
BAO_0000357

>  <BAO Label>  (95) 
single protein format

>  <Assay Organism>  (95) 
Homo sapiens

>  <Target ChEMBL ID>  (95) 
CHEMBL2599

>  <Target Name>  (95) 
Tyrosine-protein kinase SYK

>  <Target Organism>  (95) 
Homo sapiens

>  <Target Type>  (95) 
SINGLE PROTEIN

>  <Document ChEMBL ID>  (95) 
CHEMBL1833860

>  <Source Description>  (95) 
Scientific Literature

>  <Document Journal>  (95) 
Bioorg Med Chem Lett

>  <Document Year>  (95) 
2011.0

>  <Active>  (95) 
1.0

>  <bits>  (95) 
<rdkit.DataStructs.cDataStructs.ExplicitBitVect object at 0x00000193F3403E60>

>  <Group>  (95) 
G2

$$$$

     RDKit          2D

 32 34  0  0  0  0  0  0  0  0999 V2000
    5.2500   -1.2990    0.0000 C   0  0  0  0  0  0  0  0  0  0  0  0
    3.7500   -1.2990    0.0000 C   0  0  0  0  0  0  0  0  0  0  0  0
    3.0000   -2.5981    0.0000 O   0  0  0  0  0  0  0  0  0  0  0  0
    3.0000    0.0000    0.0000 N   0  0  0  0  0  0  0  0  0  0  0  0
    1.5000    0.0000    0.0000 C   0  0  0  0  0  0  0  0  0  0  0  0
    0.7500   -1.2990    0.0000 C   0  0  0  0  0  0  0  0  0  0  0  0
   -0.7500   -1.2990    0.0000 C   0  0  0  0  0  0  0  0  0  0  0  0
   -1.5000   -2.5981    0.0000 N   0  0  0  0  0  0  0  0  0  0  0  0
   -3.0000   -2.5981    0.0000 C   0  0  0  0  0  0  0  0  0  0  0  0
   -3.7500   -1.2990    0.0000 N   0  0  0  0  0  0  0  0  0  0  0  0
   -5.2500   -1.2990    0.0000 C   0  0  0  0  0  0  0  0  0  0  0  0
   -6.0000   -2.5981    0.0000 C   0  0  0  0  0  0  0  0  0  0  0  0
   -5.2500   -3.8971    0.0000 C   0  0  0  0  0  0  0  0  0  0  0  0
   -6.0000   -5.1962    0.0000 C   0  0  0  0  0  0  0  0  0  0  0  0
   -6.7500   -6.4952    0.0000 F   0  0  0  0  0  0  0  0  0  0  0  0
   -7.2990   -4.4462    0.0000 F   0  0  0  0  0  0  0  0  0  0  0  0
   -4.7010   -5.9462    0.0000 F   0  0  0  0  0  0  0  0  0  0  0  0
   -3.7500   -3.8971    0.0000 N   0  0  0  0  0  0  0  0  0  0  0  0
   -1.5000    0.0000    0.0000 C   0  0  0  0  0  0  0  0  0  0  0  0
   -0.7500    1.2990    0.0000 C   0  0  0  0  0  0  0  0  0  0  0  0
   -1.5000    2.5981    0.0000 C   0  0  0  0  0  0  0  0  0  0  0  0
   -0.7500    3.8971    0.0000 C   0  0  0  0  0  0  0  0  0  0  0  0
   -1.5000    5.1962    0.0000 C   0  0  0  0  0  0  0  0  0  0  0  0
   -3.0000    5.1962    0.0000 C   0  0  0  0  0  0  0  0  0  0  0  0
   -3.7500    6.4952    0.0000 C   0  0  0  0  0  0  0  0  0  0  0  0
   -5.2500    6.4952    0.0000 O   0  0  0  0  0  0  0  0  0  0  0  0
   -3.0000    7.7942    0.0000 C   0  0  0  0  0  0  0  0  0  0  0  0
   -3.7500    9.0933    0.0000 F   0  0  0  0  0  0  0  0  0  0  0  0
   -1.5000    7.7942    0.0000 F   0  0  0  0  0  0  0  0  0  0  0  0
   -3.7500    3.8971    0.0000 C   0  0  0  0  0  0  0  0  0  0  0  0
   -3.0000    2.5981    0.0000 C   0  0  0  0  0  0  0  0  0  0  0  0
    0.7500    1.2990    0.0000 C   0  0  0  0  0  0  0  0  0  0  0  0
  1  2  1  0
  2  3  2  0
  2  4  1  0
  4  5  1  0
  5  6  2  0
  6  7  1  0
  7  8  1  0
  8  9  1  0
  9 10  2  0
 10 11  1  0
 11 12  2  0
 12 13  1  0
 13 14  1  0
 14 15  1  0
 14 16  1  0
 14 17  1  0
 13 18  2  0
  7 19  2  0
 19 20  1  0
 20 21  1  0
 21 22  2  0
 22 23  1  0
 23 24  2  0
 24 25  1  0
 25 26  1  1
 25 27  1  0
 27 28  1  0
 27 29  1  0
 24 30  1  0
 30 31  2  0
 20 32  2  0
 32  5  1  0
 18  9  1  0
 31 21  1  0
M  END
>  <Compound_ID>  (96) 
CHEMBL3980704

>  <Molecule Name>  (96) 
nan

>  <Molecular Weight>  (96) 
452.38

>  <AlogP>  (96) 
5.16

>  <Smiles>  (96) 
CC(=O)Nc1cc(Nc2nccc(C(F)(F)F)n2)cc(-c2ccc([C@@H](O)C(F)F)cc2)c1

>  <Standard Type>  (96) 
IC50

>  <Standard Relation>  (96) 
'='

>  <Standard Units>  (96) 
nM

>  <Standard Value>  (96) 
6.3

>  <Assay ChEMBL ID>  (96) 
CHEMBL3888530

>  <Assay Description>  (96) 
Homogeneous Time-Resolved Fluorescence (HTRF) Assay: A recombinant GST-hSYK fusion protein was used to measure potency of compounds to inhibit human Syk activity. The recombinant human GST-SYK (Carna Biosciences #08-176) (5 μM final concentration) was incubated with various concentrations of the inhibitor diluted in DMSO (0.1% final concentration) for 10 minutes at room temperature in 15 mM Tris-HCl (pH 7.5), 0.01% tween 20, 2 mM DTT in 384 well plate format. To initiate the reaction the biotinylated substrate peptide (250 nM final concentration) that contains the phosphorylation site for Syk was added with magnesium (5 mM final concentration) and ATP (25 μM final concentration). Final volume of the reaction was 10 μL. Phosphorylation of the peptide was allowed to proceed for 45' at room temperature. To quench the reaction and detect the phosphorylated product, 2 nM of a Europium-anti-phosphotyrosine antibody (Perkin Elmer #AD0161) and 70 nM SA-APC (Perkin-Elmer #CR130-100) were added together in 15 mM Tris pH 7.5, 40 mM EDTA, 0.01% tween 20. Final volume of the quenching solution was 10 μL. The resulting HTRF signal was measured after 30 minutes on an EnVision (Perkin-Elmer) reader using a time-resolved fluorescence protocol.

>  <BAO Format ID>  (96) 
BAO_0000357

>  <BAO Label>  (96) 
single protein format

>  <Assay Organism>  (96) 
Homo sapiens

>  <Target ChEMBL ID>  (96) 
CHEMBL2599

>  <Target Name>  (96) 
Tyrosine-protein kinase SYK

>  <Target Organism>  (96) 
Homo sapiens

>  <Target Type>  (96) 
SINGLE PROTEIN

>  <Document ChEMBL ID>  (96) 
CHEMBL3886750

>  <Source Description>  (96) 
BindingDB Database

>  <Document Journal>  (96) 
nan

>  <Document Year>  (96) 
2016.0

>  <Active>  (96) 
1.0

>  <bits>  (96) 
<rdkit.DataStructs.cDataStructs.ExplicitBitVect object at 0x00000193F34004A0>

>  <Group>  (96) 
G2

$$$$

     RDKit          2D

 30 33  0  0  0  0  0  0  0  0999 V2000
    4.2760    0.0000    0.0000 F   0  0  0  0  0  0  0  0  0  0  0  0
    2.7760    0.0000    0.0000 C   0  0  0  0  0  0  0  0  0  0  0  0
    2.7760   -1.5000    0.0000 F   0  0  0  0  0  0  0  0  0  0  0  0
    2.7760    1.5000    0.0000 F   0  0  0  0  0  0  0  0  0  0  0  0
    1.2760    0.0000    0.0000 C   0  0  0  0  0  0  0  0  0  0  0  0
    0.3943    1.2135    0.0000 N   0  0  0  0  0  0  0  0  0  0  0  0
   -1.0323    0.7500    0.0000 C   0  0  0  0  0  0  0  0  0  0  0  0
   -2.3313    1.5000    0.0000 C   0  0  0  0  0  0  0  0  0  0  0  0
   -2.3313    3.0000    0.0000 C   0  0  0  0  0  0  0  0  0  0  0  0
   -2.3313    4.5000    0.0000 F   0  0  0  0  0  0  0  0  0  0  0  0
   -3.8313    3.0000    0.0000 F   0  0  0  0  0  0  0  0  0  0  0  0
   -0.8313    3.0000    0.0000 F   0  0  0  0  0  0  0  0  0  0  0  0
   -3.6304    0.7500    0.0000 C   0  0  0  0  0  0  0  0  0  0  0  0
   -3.6304   -0.7500    0.0000 C   0  0  0  0  0  0  0  0  0  0  0  0
   -4.9294   -1.5000    0.0000 N   0  0  0  0  0  0  0  0  0  0  0  0
   -6.2284   -0.7500    0.0000 C   0  0  0  0  0  0  0  0  0  0  0  0
   -6.2284    0.7500    0.0000 N   0  0  0  0  0  0  0  0  0  0  0  0
   -7.5275    1.5000    0.0000 C   0  0  0  0  0  0  0  0  0  0  0  0
   -8.8265    0.7500    0.0000 C   0  0  0  0  0  0  0  0  0  0  0  0
   -8.8265   -0.7500    0.0000 C   0  0  0  0  0  0  0  0  0  0  0  0
  -10.1256   -1.5000    0.0000 C   0  0  0  0  0  0  0  0  0  0  0  0
  -11.4246   -0.7500    0.0000 C   0  0  0  0  0  0  0  0  0  0  0  0
  -12.7236   -1.5000    0.0000 C   0  0  0  0  0  0  0  0  0  0  0  0
  -12.7236   -3.0000    0.0000 C   0  0  0  0  0  0  0  0  0  0  0  0
  -11.4246   -3.7500    0.0000 C   0  0  0  0  0  0  0  0  0  0  0  0
  -10.1256   -3.0000    0.0000 N   0  0  0  0  0  0  0  0  0  0  0  0
   -7.5275   -1.5000    0.0000 N   0  0  0  0  0  0  0  0  0  0  0  0
   -2.3313   -1.5000    0.0000 C   0  0  0  0  0  0  0  0  0  0  0  0
   -1.0323   -0.7500    0.0000 C   0  0  0  0  0  0  0  0  0  0  0  0
    0.3943   -1.2135    0.0000 N   0  0  0  0  0  0  0  0  0  0  0  0
  1  2  1  0
  2  3  1  0
  2  4  1  0
  2  5  1  0
  5  6  2  0
  6  7  1  0
  7  8  2  0
  8  9  1  0
  9 10  1  0
  9 11  1  0
  9 12  1  0
  8 13  1  0
 13 14  2  0
 14 15  1  0
 15 16  1  0
 16 17  2  0
 17 18  1  0
 18 19  2  0
 19 20  1  0
 20 21  1  0
 21 22  2  0
 22 23  1  0
 23 24  2  0
 24 25  1  0
 25 26  2  0
 20 27  2  0
 14 28  1  0
 28 29  2  0
 29 30  1  0
 30  5  1  0
 29  7  1  0
 27 16  1  0
 26 21  1  0
M  END
>  <Compound_ID>  (97) 
CHEMBL3643818

>  <Molecule Name>  (97) 
nan

>  <Molecular Weight>  (97) 
424.31

>  <AlogP>  (97) 
5.20

>  <Smiles>  (97) 
FC(F)(F)c1nc2c(C(F)(F)F)cc(Nc3nccc(-c4ccccn4)n3)cc2[nH]1

>  <Standard Type>  (97) 
IC50

>  <Standard Relation>  (97) 
'='

>  <Standard Units>  (97) 
nM

>  <Standard Value>  (97) 
10.3

>  <Assay ChEMBL ID>  (97) 
CHEMBL3705803

>  <Assay Description>  (97) 
Kinase Glo Luminescence Kinase Assay: Recombinant human Syk (amino acids 342-635) was expressed as a fusion protein with an N-terminal GST tag, affinity-purified and deep-frozen at a concentration of approx. 50-100 uM in test buffer (25 mM HEPES pH7.5; 25 mM MgCl2; 5 mM MnCl2; 50 mM KCl; 0.2% BSA; 0.01% CHAPS; 100 uM Na3VO4; 0.5 mM DTT) and 10% glycerol at -80 C until use. The catalytic activity of the GST-Syk kinase fusion protein was determined using the Kinase Glo Luminescence Kinase test (Promega; V6712). In this homogeneous test the amount of ATP remaining after the kinase reaction is quantified by a luciferin-luciferase reaction using luminescence. The luminescence signal obtained correlates with the amount of ATP still present and thus correlates inversely with the activity of the protein kinase. The test compounds were dissolved in 100% DMSO at a concentration of 10 mM and diluted in DMSO to a concentration of 1 mM.

>  <BAO Format ID>  (97) 
BAO_0000357

>  <BAO Label>  (97) 
single protein format

>  <Assay Organism>  (97) 
Homo sapiens

>  <Target ChEMBL ID>  (97) 
CHEMBL2599

>  <Target Name>  (97) 
Tyrosine-protein kinase SYK

>  <Target Organism>  (97) 
Homo sapiens

>  <Target Type>  (97) 
SINGLE PROTEIN

>  <Document ChEMBL ID>  (97) 
CHEMBL3638486

>  <Source Description>  (97) 
BindingDB Database

>  <Document Journal>  (97) 
nan

>  <Document Year>  (97) 
2014.0

>  <Active>  (97) 
1.0

>  <bits>  (97) 
<rdkit.DataStructs.cDataStructs.ExplicitBitVect object at 0x00000193F34037D0>

>  <Group>  (97) 
G2

$$$$

     RDKit          2D

 31 34  0  0  0  0  0  0  0  0999 V2000
   -0.7500   -9.0933    0.0000 C   0  0  0  0  0  0  0  0  0  0  0  0
    0.7500   -9.0933    0.0000 O   0  0  0  0  0  0  0  0  0  0  0  0
    1.5000   -7.7942    0.0000 C   0  0  0  0  0  0  0  0  0  0  0  0
    0.7500   -6.4952    0.0000 C   0  0  0  0  0  0  0  0  0  0  0  0
    1.5000   -5.1962    0.0000 C   0  0  0  0  0  0  0  0  0  0  0  0
    0.7500   -3.8971    0.0000 C   0  0  0  0  0  0  0  0  0  0  0  0
    1.5000   -2.5981    0.0000 C   0  0  0  0  0  0  0  0  0  0  0  0
    0.7500   -1.2990    0.0000 C   0  0  0  0  0  0  0  0  0  0  0  0
    1.5000    0.0000    0.0000 N   0  0  0  0  0  0  0  0  0  0  0  0
    0.7500    1.2990    0.0000 C   0  0  0  0  0  0  0  0  0  0  0  0
   -0.7500    1.2990    0.0000 C   0  0  0  0  0  0  0  0  0  0  0  0
   -1.5000    0.0000    0.0000 C   0  0  0  0  0  0  0  0  0  0  0  0
   -0.7500   -1.2990    0.0000 C   0  0  0  0  0  0  0  0  0  0  0  0
   -1.5000   -2.5981    0.0000 C   0  0  0  0  0  0  0  0  0  0  0  0
   -3.0000   -2.5981    0.0000 O   0  0  0  0  0  0  0  0  0  0  0  0
   -3.7500   -3.8971    0.0000 C   0  0  0  0  0  0  0  0  0  0  0  0
   -5.2500   -3.8971    0.0000 C   0  0  0  0  0  0  0  0  0  0  0  0
   -3.0000   -5.1962    0.0000 C   0  0  0  0  0  0  0  0  0  0  0  0
   -1.5082   -5.3529    0.0000 C   0  0  0  0  0  0  0  0  0  0  0  0
   -1.1963   -6.8202    0.0000 C   0  0  0  0  0  0  0  0  0  0  0  0
    0.1740   -7.4303    0.0000 O   0  0  0  0  0  0  0  0  0  0  0  0
   -2.4954   -7.5702    0.0000 N   0  0  0  0  0  0  0  0  0  0  0  0
   -3.6101   -6.5665    0.0000 O   0  0  0  0  0  0  0  0  0  0  0  0
   -0.7500   -3.8971    0.0000 N   0  0  0  0  0  0  0  0  0  0  0  0
    3.0000   -5.1962    0.0000 C   0  0  0  0  0  0  0  0  0  0  0  0
    3.7500   -6.4952    0.0000 C   0  0  0  0  0  0  0  0  0  0  0  0
    5.2500   -6.4952    0.0000 O   0  0  0  0  0  0  0  0  0  0  0  0
    6.0000   -7.7942    0.0000 C   0  0  0  0  0  0  0  0  0  0  0  0
    3.0000   -7.7942    0.0000 C   0  0  0  0  0  0  0  0  0  0  0  0
    3.7500   -9.0933    0.0000 O   0  0  0  0  0  0  0  0  0  0  0  0
    3.0000  -10.3923    0.0000 C   0  0  0  0  0  0  0  0  0  0  0  0
  1  2  1  0
  2  3  1  0
  3  4  2  0
  4  5  1  0
  5  6  1  0
  6  7  2  0
  7  8  1  0
  8  9  2  0
  9 10  1  0
 10 11  2  0
 11 12  1  0
 12 13  2  0
 13 14  1  0
 14 15  1  0
 15 16  1  0
 16 17  1  0
 16 18  1  0
 18 19  1  0
 19 20  1  0
 20 21  2  0
 20 22  1  0
 22 23  1  0
 14 24  2  0
  5 25  2  0
 25 26  1  0
 26 27  1  0
 27 28  1  0
 26 29  2  0
 29 30  1  0
 30 31  1  0
 29  3  1  0
 24  6  1  0
 13  8  1  0
 23 18  1  0
M  END
>  <Compound_ID>  (98) 
CHEMBL3695976

>  <Molecule Name>  (98) 
nan

>  <Molecular Weight>  (98) 
425.44

>  <AlogP>  (98) 
2.91

>  <Smiles>  (98) 
COc1cc(-c2cc3ncccc3c(OC(C)C3CC(=O)NO3)n2)cc(OC)c1OC

>  <Standard Type>  (98) 
IC50

>  <Standard Relation>  (98) 
'='

>  <Standard Units>  (98) 
nM

>  <Standard Value>  (98) 
17.3

>  <Assay ChEMBL ID>  (98) 
CHEMBL3705989

>  <Assay Description>  (98) 
Kinase Glo Luminescence Kinase Assay: Recombinant human Syk (amino acids 342-635) was expressed as a fusion protein with an N-terminal GST tag, affinity-purified and deep-frozen at a concentration of approx. 50 - 100 uM in test buffer (25 mM HEPES pH7.5; 25 mM MgCI2;5 mM MnCI2; 50 mM KCI; 0.2% BSA; 0.01 % CHAPS; 100 uM Na3V04; 0.5 mM DTT) and 10% glycerol at -80 C until use.The catalytic activity of the GST-Syk kinase fusion protein was determined using the Kinase Glo Luminescence Kinase test (Promega; V6712). In this homogeneous test the amount of ATP remaining after the kinase reaction is quantified by a luciferin-luciferase reaction using luminescence. The luminescence signal obtained correlates with the amount of ATP still present and thus correlates inversely with the activity of the protein kinase. Method:The test compounds were dissolved in 100 % DMSO at a concentration of 10 mM and diluted in DMSO to a concentration of 1 mM.

>  <BAO Format ID>  (98) 
BAO_0000357

>  <BAO Label>  (98) 
single protein format

>  <Assay Organism>  (98) 
Homo sapiens

>  <Target ChEMBL ID>  (98) 
CHEMBL2599

>  <Target Name>  (98) 
Tyrosine-protein kinase SYK

>  <Target Organism>  (98) 
Homo sapiens

>  <Target Type>  (98) 
SINGLE PROTEIN

>  <Document ChEMBL ID>  (98) 
CHEMBL3639308

>  <Source Description>  (98) 
BindingDB Database

>  <Document Journal>  (98) 
nan

>  <Document Year>  (98) 
2015.0

>  <Active>  (98) 
1.0

>  <bits>  (98) 
<rdkit.DataStructs.cDataStructs.ExplicitBitVect object at 0x00000193F3402D50>

>  <Group>  (98) 
G2

$$$$

     RDKit          2D

 35 39  0  0  0  0  0  0  0  0999 V2000
   -6.0000   -5.1962    0.0000 C   0  0  0  0  0  0  0  0  0  0  0  0
   -5.2500   -3.8971    0.0000 C   0  0  0  0  0  0  0  0  0  0  0  0
   -3.7500   -3.8971    0.0000 C   0  0  0  0  0  0  0  0  0  0  0  0
   -3.0000   -2.5981    0.0000 O   0  0  0  0  0  0  0  0  0  0  0  0
   -1.5000   -2.5981    0.0000 C   0  0  0  0  0  0  0  0  0  0  0  0
   -0.7500   -3.8971    0.0000 N   0  0  0  0  0  0  0  0  0  0  0  0
    0.7500   -3.8971    0.0000 C   0  0  0  0  0  0  0  0  0  0  0  0
    1.5000   -5.1962    0.0000 C   0  0  0  0  0  0  0  0  0  0  0  0
    0.7500   -6.4952    0.0000 C   0  0  0  0  0  0  0  0  0  0  0  0
    1.5000   -7.7942    0.0000 C   0  0  0  0  0  0  0  0  0  0  0  0
    3.0000   -7.7942    0.0000 C   0  0  0  0  0  0  0  0  0  0  0  0
    3.7500   -9.0933    0.0000 O   0  0  0  0  0  0  0  0  0  0  0  0
    3.0000  -10.3923    0.0000 C   0  0  0  0  0  0  0  0  0  0  0  0
    1.5000  -10.3923    0.0000 C   0  0  0  0  0  0  0  0  0  0  0  0
    0.7500  -11.6913    0.0000 C   0  0  0  0  0  0  0  0  0  0  0  0
    1.5000  -12.9904    0.0000 O   0  0  0  0  0  0  0  0  0  0  0  0
    3.0000  -12.9904    0.0000 C   0  0  0  0  0  0  0  0  0  0  0  0
    3.7500  -11.6913    0.0000 C   0  0  0  0  0  0  0  0  0  0  0  0
    3.7500   -6.4952    0.0000 C   0  0  0  0  0  0  0  0  0  0  0  0
    5.2500   -6.4952    0.0000 O   0  0  0  0  0  0  0  0  0  0  0  0
    6.0000   -5.1962    0.0000 C   0  0  0  0  0  0  0  0  0  0  0  0
    3.0000   -5.1962    0.0000 C   0  0  0  0  0  0  0  0  0  0  0  0
    1.5000   -2.5981    0.0000 C   0  0  0  0  0  0  0  0  0  0  0  0
    0.7500   -1.2990    0.0000 C   0  0  0  0  0  0  0  0  0  0  0  0
    1.5000    0.0000    0.0000 N   0  0  0  0  0  0  0  0  0  0  0  0
    0.7500    1.2990    0.0000 C   0  0  0  0  0  0  0  0  0  0  0  0
   -0.7500    1.2990    0.0000 C   0  0  0  0  0  0  0  0  0  0  0  0
   -1.5000    0.0000    0.0000 C   0  0  0  0  0  0  0  0  0  0  0  0
   -0.7500   -1.2990    0.0000 C   0  0  0  0  0  0  0  0  0  0  0  0
   -3.0000   -5.1962    0.0000 C   0  0  0  0  0  0  0  0  0  0  0  0
   -1.5082   -5.3529    0.0000 C   0  0  0  0  0  0  0  0  0  0  0  0
   -1.1963   -6.8202    0.0000 N   0  0  0  0  0  0  0  0  0  0  0  0
   -2.4954   -7.5702    0.0000 C   0  0  0  0  0  0  0  0  0  0  0  0
   -2.6522   -9.0619    0.0000 O   0  0  0  0  0  0  0  0  0  0  0  0
   -3.6101   -6.5665    0.0000 C   0  0  0  0  0  0  0  0  0  0  0  0
  1  2  1  0
  3  2  1  1
  3  4  1  0
  4  5  1  0
  5  6  2  0
  6  7  1  0
  7  8  1  0
  8  9  2  0
  9 10  1  0
 10 11  2  0
 11 12  1  0
 12 13  1  0
 13 14  1  0
 14 15  1  0
 15 16  1  0
 16 17  1  0
 17 18  1  0
 11 19  1  0
 19 20  1  0
 20 21  1  0
 19 22  2  0
  7 23  2  0
 23 24  1  0
 24 25  2  0
 25 26  1  0
 26 27  2  0
 27 28  1  0
 28 29  2  0
  3 30  1  0
 30 31  1  1
 31 32  1  0
 32 33  1  0
 33 34  2  0
 33 35  1  0
 29  5  1  0
 35 30  1  0
 22  8  1  0
 29 24  1  0
 18 13  1  0
M  END
>  <Compound_ID>  (99) 
CHEMBL3696007

>  <Molecule Name>  (99) 
nan

>  <Molecular Weight>  (99) 
477.56

>  <AlogP>  (99) 
4.16

>  <Smiles>  (99) 
CC[C@@H](Oc1nc(-c2ccc(OC3CCOCC3)c(OC)c2)cc2ncccc12)[C@H]1CNC(=O)C1

>  <Standard Type>  (99) 
IC50

>  <Standard Relation>  (99) 
'='

>  <Standard Units>  (99) 
nM

>  <Standard Value>  (99) 
0.1

>  <Assay ChEMBL ID>  (99) 
CHEMBL3705989

>  <Assay Description>  (99) 
Kinase Glo Luminescence Kinase Assay: Recombinant human Syk (amino acids 342-635) was expressed as a fusion protein with an N-terminal GST tag, affinity-purified and deep-frozen at a concentration of approx. 50 - 100 uM in test buffer (25 mM HEPES pH7.5; 25 mM MgCI2;5 mM MnCI2; 50 mM KCI; 0.2% BSA; 0.01 % CHAPS; 100 uM Na3V04; 0.5 mM DTT) and 10% glycerol at -80 C until use.The catalytic activity of the GST-Syk kinase fusion protein was determined using the Kinase Glo Luminescence Kinase test (Promega; V6712). In this homogeneous test the amount of ATP remaining after the kinase reaction is quantified by a luciferin-luciferase reaction using luminescence. The luminescence signal obtained correlates with the amount of ATP still present and thus correlates inversely with the activity of the protein kinase. Method:The test compounds were dissolved in 100 % DMSO at a concentration of 10 mM and diluted in DMSO to a concentration of 1 mM.

>  <BAO Format ID>  (99) 
BAO_0000357

>  <BAO Label>  (99) 
single protein format

>  <Assay Organism>  (99) 
Homo sapiens

>  <Target ChEMBL ID>  (99) 
CHEMBL2599

>  <Target Name>  (99) 
Tyrosine-protein kinase SYK

>  <Target Organism>  (99) 
Homo sapiens

>  <Target Type>  (99) 
SINGLE PROTEIN

>  <Document ChEMBL ID>  (99) 
CHEMBL3639308

>  <Source Description>  (99) 
BindingDB Database

>  <Document Journal>  (99) 
nan

>  <Document Year>  (99) 
2015.0

>  <Active>  (99) 
1.0

>  <bits>  (99) 
<rdkit.DataStructs.cDataStructs.ExplicitBitVect object at 0x00000193F3402EA0>

>  <Group>  (99) 
G2

$$$$

     RDKit          2D

 28 31  0  0  0  0  0  0  0  0999 V2000
    3.0000  -10.3923    0.0000 C   0  0  0  0  0  0  0  0  0  0  0  0
    3.7500   -9.0933    0.0000 O   0  0  0  0  0  0  0  0  0  0  0  0
    3.0000   -7.7942    0.0000 C   0  0  0  0  0  0  0  0  0  0  0  0
    1.5000   -7.7942    0.0000 C   0  0  0  0  0  0  0  0  0  0  0  0
    0.7500   -6.4952    0.0000 C   0  0  0  0  0  0  0  0  0  0  0  0
    1.5000   -5.1962    0.0000 C   0  0  0  0  0  0  0  0  0  0  0  0
    0.7500   -3.8971    0.0000 C   0  0  0  0  0  0  0  0  0  0  0  0
    1.5000   -2.5981    0.0000 C   0  0  0  0  0  0  0  0  0  0  0  0
    0.7500   -1.2990    0.0000 C   0  0  0  0  0  0  0  0  0  0  0  0
    1.5000    0.0000    0.0000 N   0  0  0  0  0  0  0  0  0  0  0  0
    0.7500    1.2990    0.0000 C   0  0  0  0  0  0  0  0  0  0  0  0
   -0.7500    1.2990    0.0000 C   0  0  0  0  0  0  0  0  0  0  0  0
   -1.5000    0.0000    0.0000 C   0  0  0  0  0  0  0  0  0  0  0  0
   -0.7500   -1.2990    0.0000 C   0  0  0  0  0  0  0  0  0  0  0  0
   -1.5000   -2.5981    0.0000 C   0  0  0  0  0  0  0  0  0  0  0  0
   -3.0000   -2.5981    0.0000 N   0  0  0  0  0  0  0  0  0  0  0  0
   -3.7500   -3.8971    0.0000 C   0  0  0  0  0  0  0  0  0  0  0  0
   -5.2500   -3.8971    0.0000 C   0  0  0  0  0  0  0  0  0  0  0  0
   -6.1317   -5.1106    0.0000 C   0  0  0  0  0  0  0  0  0  0  0  0
   -7.5583   -4.6471    0.0000 C   0  0  0  0  0  0  0  0  0  0  0  0
   -8.7718   -5.5288    0.0000 O   0  0  0  0  0  0  0  0  0  0  0  0
   -7.5583   -3.1471    0.0000 N   0  0  0  0  0  0  0  0  0  0  0  0
   -6.1317   -2.6836    0.0000 O   0  0  0  0  0  0  0  0  0  0  0  0
   -0.7500   -3.8971    0.0000 N   0  0  0  0  0  0  0  0  0  0  0  0
    3.0000   -5.1962    0.0000 C   0  0  0  0  0  0  0  0  0  0  0  0
    3.7500   -6.4952    0.0000 C   0  0  0  0  0  0  0  0  0  0  0  0
    5.2500   -6.4952    0.0000 O   0  0  0  0  0  0  0  0  0  0  0  0
    6.0000   -5.1962    0.0000 C   0  0  0  0  0  0  0  0  0  0  0  0
  1  2  1  0
  2  3  1  0
  3  4  2  0
  4  5  1  0
  5  6  2  0
  6  7  1  0
  7  8  2  0
  8  9  1  0
  9 10  2  0
 10 11  1  0
 11 12  2  0
 12 13  1  0
 13 14  2  0
 14 15  1  0
 15 16  1  0
 16 17  1  0
 17 18  1  0
 18 19  1  0
 19 20  1  0
 20 21  2  0
 20 22  1  0
 22 23  1  0
 15 24  2  0
  6 25  1  0
 25 26  2  0
 26 27  1  0
 27 28  1  0
 26  3  1  0
 24  7  1  0
 14  9  1  0
 23 18  1  0
M  END
>  <Compound_ID>  (100) 
CHEMBL3696018

>  <Molecule Name>  (100) 
nan

>  <Molecular Weight>  (100) 
380.4

>  <AlogP>  (100) 
2.55

>  <Smiles>  (100) 
COc1ccc(-c2cc3ncccc3c(NCC3CC(=O)NO3)n2)cc1OC

>  <Standard Type>  (100) 
IC50

>  <Standard Relation>  (100) 
'='

>  <Standard Units>  (100) 
nM

>  <Standard Value>  (100) 
38.6

>  <Assay ChEMBL ID>  (100) 
CHEMBL3705989

>  <Assay Description>  (100) 
Kinase Glo Luminescence Kinase Assay: Recombinant human Syk (amino acids 342-635) was expressed as a fusion protein with an N-terminal GST tag, affinity-purified and deep-frozen at a concentration of approx. 50 - 100 uM in test buffer (25 mM HEPES pH7.5; 25 mM MgCI2;5 mM MnCI2; 50 mM KCI; 0.2% BSA; 0.01 % CHAPS; 100 uM Na3V04; 0.5 mM DTT) and 10% glycerol at -80 C until use.The catalytic activity of the GST-Syk kinase fusion protein was determined using the Kinase Glo Luminescence Kinase test (Promega; V6712). In this homogeneous test the amount of ATP remaining after the kinase reaction is quantified by a luciferin-luciferase reaction using luminescence. The luminescence signal obtained correlates with the amount of ATP still present and thus correlates inversely with the activity of the protein kinase. Method:The test compounds were dissolved in 100 % DMSO at a concentration of 10 mM and diluted in DMSO to a concentration of 1 mM.

>  <BAO Format ID>  (100) 
BAO_0000357

>  <BAO Label>  (100) 
single protein format

>  <Assay Organism>  (100) 
Homo sapiens

>  <Target ChEMBL ID>  (100) 
CHEMBL2599

>  <Target Name>  (100) 
Tyrosine-protein kinase SYK

>  <Target Organism>  (100) 
Homo sapiens

>  <Target Type>  (100) 
SINGLE PROTEIN

>  <Document ChEMBL ID>  (100) 
CHEMBL3639308

>  <Source Description>  (100) 
BindingDB Database

>  <Document Journal>  (100) 
nan

>  <Document Year>  (100) 
2015.0

>  <Active>  (100) 
1.0

>  <bits>  (100) 
<rdkit.DataStructs.cDataStructs.ExplicitBitVect object at 0x00000193F3401930>

>  <Group>  (100) 
G2

$$$$

     RDKit          2D

 25 27  0  0  0  0  0  0  0  0999 V2000
  -13.7388    3.4509    0.0000 C   0  0  0  0  0  0  0  0  0  0  0  0
  -12.3122    3.9144    0.0000 C   0  0  0  0  0  0  0  0  0  0  0  0
  -11.1975    2.9107    0.0000 C   0  0  0  0  0  0  0  0  0  0  0  0
  -11.5094    1.4435    0.0000 N   0  0  0  0  0  0  0  0  0  0  0  0
   -9.7709    3.3742    0.0000 C   0  0  0  0  0  0  0  0  0  0  0  0
   -8.6562    2.3705    0.0000 N   0  0  0  0  0  0  0  0  0  0  0  0
   -7.2296    2.8340    0.0000 C   0  0  0  0  0  0  0  0  0  0  0  0
   -6.9177    4.3013    0.0000 N   0  0  0  0  0  0  0  0  0  0  0  0
   -5.4912    4.7648    0.0000 N   0  0  0  0  0  0  0  0  0  0  0  0
   -4.3764    3.7611    0.0000 C   0  0  0  0  0  0  0  0  0  0  0  0
   -2.9499    4.2246    0.0000 C   0  0  0  0  0  0  0  0  0  0  0  0
   -2.6380    5.6918    0.0000 N   0  0  0  0  0  0  0  0  0  0  0  0
   -1.8351    3.2209    0.0000 O   0  0  0  0  0  0  0  0  0  0  0  0
   -4.6883    2.2939    0.0000 C   0  0  0  0  0  0  0  0  0  0  0  0
   -3.5736    1.2902    0.0000 N   0  0  0  0  0  0  0  0  0  0  0  0
   -3.8855   -0.1771    0.0000 C   0  0  0  0  0  0  0  0  0  0  0  0
   -5.3120   -0.6406    0.0000 C   0  0  0  0  0  0  0  0  0  0  0  0
   -5.6239   -2.1078    0.0000 C   0  0  0  0  0  0  0  0  0  0  0  0
   -4.5092   -3.1115    0.0000 C   0  0  0  0  0  0  0  0  0  0  0  0
   -3.0826   -2.6480    0.0000 C   0  0  0  0  0  0  0  0  0  0  0  0
   -1.7836   -3.3980    0.0000 S   0  0  0  0  0  0  0  0  0  0  0  0
   -0.6689   -2.3943    0.0000 C   0  0  0  0  0  0  0  0  0  0  0  0
   -1.2790   -1.0240    0.0000 C   0  0  0  0  0  0  0  0  0  0  0  0
   -2.7707   -1.1807    0.0000 C   0  0  0  0  0  0  0  0  0  0  0  0
   -6.1149    1.8303    0.0000 N   0  0  0  0  0  0  0  0  0  0  0  0
  1  2  1  0
  2  3  1  0
  3  4  1  1
  3  5  1  0
  5  6  1  0
  6  7  1  0
  7  8  2  0
  8  9  1  0
  9 10  2  0
 10 11  1  0
 11 12  1  0
 11 13  2  0
 10 14  1  0
 14 15  1  0
 15 16  1  0
 16 17  2  0
 17 18  1  0
 18 19  2  0
 19 20  1  0
 20 21  1  0
 21 22  1  0
 22 23  2  0
 23 24  1  0
 14 25  2  0
 25  7  1  0
 24 16  1  0
 24 20  2  0
M  END
>  <Compound_ID>  (101) 
CHEMBL3964579

>  <Molecule Name>  (101) 
nan

>  <Molecular Weight>  (101) 
357.44

>  <AlogP>  (101) 
2.08

>  <Smiles>  (101) 
CC[C@H](N)CNc1nnc(C(N)=O)c(Nc2cccc3sccc23)n1

>  <Standard Type>  (101) 
IC50

>  <Standard Relation>  (101) 
'='

>  <Standard Units>  (101) 
nM

>  <Standard Value>  (101) 
0.35

>  <Assay ChEMBL ID>  (101) 
CHEMBL3887308

>  <Assay Description>  (101) 
Syk Kinase Inhibition Assay: The in vitro inhibitory activity of the compound of the present invention against Syk kinase activity was assayed under the following conditions: the purified human Syk protein used in the test were purchased from Carna Biosciences, Inc. For the inhibitory activity assay on the compound, the compound of the present invention was first serially diluted with dimethyl sulfoxide (DMSO). Next, the purified human Syk protein FL-Peptide 22 (final concentration: 1 uM) (Caliper Life Sciences, Inc.), magnesium chloride (final concentration: 5 mM), ATP (final concentration: 30 uM), and each DMSO solution of the compound of the present invention (final concentration of DMSO: 5%) were added into a buffer solution for reaction (20 mM tris-HCl pH 7.5, 20 mM NaCl, 2.5 mM DTT, 0.02% Tween-20, 1% glycerol, 0.01 mM Pefabloc), and the mixture was then incubated at 25° C. for 30 minutes to perform kinase reaction. The kinase reaction was stopped by the addition thereto of EDTA.

>  <BAO Format ID>  (101) 
BAO_0000357

>  <BAO Label>  (101) 
single protein format

>  <Assay Organism>  (101) 
Homo sapiens

>  <Target ChEMBL ID>  (101) 
CHEMBL2599

>  <Target Name>  (101) 
Tyrosine-protein kinase SYK

>  <Target Organism>  (101) 
Homo sapiens

>  <Target Type>  (101) 
SINGLE PROTEIN

>  <Document ChEMBL ID>  (101) 
CHEMBL3886160

>  <Source Description>  (101) 
BindingDB Database

>  <Document Journal>  (101) 
nan

>  <Document Year>  (101) 
2015.0

>  <Active>  (101) 
1.0

>  <bits>  (101) 
<rdkit.DataStructs.cDataStructs.ExplicitBitVect object at 0x00000193F34031B0>

>  <Group>  (101) 
G2

$$$$

     RDKit          2D

 32 35  0  0  0  0  0  0  0  0999 V2000
   -6.0000   -5.1962    0.0000 C   0  0  0  0  0  0  0  0  0  0  0  0
   -5.2500   -6.4952    0.0000 O   0  0  0  0  0  0  0  0  0  0  0  0
   -3.7500   -6.4952    0.0000 C   0  0  0  0  0  0  0  0  0  0  0  0
   -3.0000   -5.1962    0.0000 C   0  0  0  0  0  0  0  0  0  0  0  0
   -1.5000   -5.1962    0.0000 C   0  0  0  0  0  0  0  0  0  0  0  0
   -0.7500   -3.8971    0.0000 C   0  0  0  0  0  0  0  0  0  0  0  0
   -1.5000   -2.5981    0.0000 C   0  0  0  0  0  0  0  0  0  0  0  0
   -0.7500   -1.2990    0.0000 C   0  0  0  0  0  0  0  0  0  0  0  0
    0.7500   -1.2990    0.0000 C   0  0  0  0  0  0  0  0  0  0  0  0
    1.5000    0.0000    0.0000 C   0  0  0  0  0  0  0  0  0  0  0  0
    0.7500    1.2990    0.0000 C   0  0  0  0  0  0  0  0  0  0  0  0
   -0.7500    1.2990    0.0000 C   0  0  0  0  0  0  0  0  0  0  0  0
   -1.5000    0.0000    0.0000 N   0  0  0  0  0  4  0  0  0  0  0  0
   -3.0000    0.0000    0.0000 O   0  0  0  0  0  1  0  0  0  0  0  0
    1.5000   -2.5981    0.0000 C   0  0  0  0  0  0  0  0  0  0  0  0
    3.0000   -2.5981    0.0000 O   0  0  0  0  0  0  0  0  0  0  0  0
    3.7500   -3.8971    0.0000 C   0  0  0  0  0  0  0  0  0  0  0  0
    5.2500   -3.8971    0.0000 C   0  0  0  0  0  0  0  0  0  0  0  0
    3.0000   -5.1962    0.0000 C   0  0  0  0  0  0  0  0  0  0  0  0
    3.6101   -6.5665    0.0000 C   0  0  0  0  0  0  0  0  0  0  0  0
    2.4954   -7.5702    0.0000 N   0  0  0  0  0  0  0  0  0  0  0  0
    1.1963   -6.8202    0.0000 C   0  0  0  0  0  0  0  0  0  0  0  0
   -0.1740   -7.4303    0.0000 O   0  0  0  0  0  0  0  0  0  0  0  0
    1.5082   -5.3529    0.0000 C   0  0  0  0  0  0  0  0  0  0  0  0
    0.7500   -3.8971    0.0000 N   0  0  0  0  0  0  0  0  0  0  0  0
   -0.7500   -6.4952    0.0000 C   0  0  0  0  0  0  0  0  0  0  0  0
   -1.5000   -7.7942    0.0000 C   0  0  0  0  0  0  0  0  0  0  0  0
   -0.7500   -9.0933    0.0000 O   0  0  0  0  0  0  0  0  0  0  0  0
   -1.5000  -10.3923    0.0000 C   0  0  0  0  0  0  0  0  0  0  0  0
   -3.0000   -7.7942    0.0000 C   0  0  0  0  0  0  0  0  0  0  0  0
   -3.7500   -9.0933    0.0000 O   0  0  0  0  0  0  0  0  0  0  0  0
   -5.2500   -9.0933    0.0000 C   0  0  0  0  0  0  0  0  0  0  0  0
  1  2  1  0
  2  3  1  0
  3  4  2  0
  4  5  1  0
  5  6  1  0
  6  7  2  0
  7  8  1  0
  8  9  2  0
  9 10  1  0
 10 11  2  0
 11 12  1  0
 12 13  2  0
 13 14  1  0
  9 15  1  0
 15 16  1  0
 16 17  1  0
 17 18  1  6
 17 19  1  0
 19 20  1  1
 20 21  1  0
 21 22  1  0
 22 23  2  0
 22 24  1  0
 15 25  2  0
  5 26  2  0
 26 27  1  0
 27 28  1  0
 28 29  1  0
 27 30  2  0
 30 31  1  0
 31 32  1  0
 30  3  1  0
 25  6  1  0
 13  8  1  0
 24 19  1  0
M  CHG  2  13   1  14  -1
M  END
>  <Compound_ID>  (102) 
CHEMBL3695981

>  <Molecule Name>  (102) 
nan

>  <Molecular Weight>  (102) 
439.47

>  <AlogP>  (102) 
2.46

>  <Smiles>  (102) 
COc1cc(-c2cc3c(ccc[n+]3[O-])c(O[C@H](C)[C@H]3CNC(=O)C3)n2)cc(OC)c1OC

>  <Standard Type>  (102) 
IC50

>  <Standard Relation>  (102) 
'='

>  <Standard Units>  (102) 
nM

>  <Standard Value>  (102) 
4.3

>  <Assay ChEMBL ID>  (102) 
CHEMBL3705989

>  <Assay Description>  (102) 
Kinase Glo Luminescence Kinase Assay: Recombinant human Syk (amino acids 342-635) was expressed as a fusion protein with an N-terminal GST tag, affinity-purified and deep-frozen at a concentration of approx. 50 - 100 uM in test buffer (25 mM HEPES pH7.5; 25 mM MgCI2;5 mM MnCI2; 50 mM KCI; 0.2% BSA; 0.01 % CHAPS; 100 uM Na3V04; 0.5 mM DTT) and 10% glycerol at -80 C until use.The catalytic activity of the GST-Syk kinase fusion protein was determined using the Kinase Glo Luminescence Kinase test (Promega; V6712). In this homogeneous test the amount of ATP remaining after the kinase reaction is quantified by a luciferin-luciferase reaction using luminescence. The luminescence signal obtained correlates with the amount of ATP still present and thus correlates inversely with the activity of the protein kinase. Method:The test compounds were dissolved in 100 % DMSO at a concentration of 10 mM and diluted in DMSO to a concentration of 1 mM.

>  <BAO Format ID>  (102) 
BAO_0000357

>  <BAO Label>  (102) 
single protein format

>  <Assay Organism>  (102) 
Homo sapiens

>  <Target ChEMBL ID>  (102) 
CHEMBL2599

>  <Target Name>  (102) 
Tyrosine-protein kinase SYK

>  <Target Organism>  (102) 
Homo sapiens

>  <Target Type>  (102) 
SINGLE PROTEIN

>  <Document ChEMBL ID>  (102) 
CHEMBL3639308

>  <Source Description>  (102) 
BindingDB Database

>  <Document Journal>  (102) 
nan

>  <Document Year>  (102) 
2015.0

>  <Active>  (102) 
1.0

>  <bits>  (102) 
<rdkit.DataStructs.cDataStructs.ExplicitBitVect object at 0x00000193F3401FC0>

>  <Group>  (102) 
G2

$$$$

     RDKit          2D

 35 41  0  0  0  0  0  0  0  0999 V2000
    1.2760    0.0000    0.0000 C   0  0  0  0  0  0  0  0  0  0  0  0
    0.3943    1.2135    0.0000 C   0  0  0  0  0  0  0  0  0  0  0  0
   -1.0323    0.7500    0.0000 N   0  0  0  0  0  0  0  0  0  0  0  0
   -2.3313    1.5000    0.0000 C   0  0  0  0  0  0  0  0  0  0  0  0
   -3.6304    0.7500    0.0000 C   0  0  0  0  0  0  0  0  0  0  0  0
   -4.9294    1.5000    0.0000 C   0  0  0  0  0  0  0  0  0  0  0  0
   -4.9294    3.0000    0.0000 C   0  0  0  0  0  0  0  0  0  0  0  0
   -6.2284    3.7500    0.0000 C   0  0  0  0  0  0  0  0  0  0  0  0
   -7.5275    3.0000    0.0000 C   0  0  0  0  0  0  0  0  0  0  0  0
   -8.9541    3.4635    0.0000 C   0  0  0  0  0  0  0  0  0  0  0  0
   -9.8357    2.2500    0.0000 N   0  0  0  0  0  0  0  0  0  0  0  0
   -8.9541    1.0365    0.0000 N   0  0  0  0  0  0  0  0  0  0  0  0
   -7.5275    1.5000    0.0000 C   0  0  0  0  0  0  0  0  0  0  0  0
   -6.2284    0.7500    0.0000 C   0  0  0  0  0  0  0  0  0  0  0  0
   -3.6304   -0.7500    0.0000 N   0  0  0  0  0  0  0  0  0  0  0  0
   -2.3313   -1.5000    0.0000 C   0  0  0  0  0  0  0  0  0  0  0  0
   -2.3313   -3.0000    0.0000 N   0  0  0  0  0  0  0  0  0  0  0  0
   -3.6304   -3.7500    0.0000 C   0  0  0  0  0  0  0  0  0  0  0  0
   -4.9294   -3.0000    0.0000 C   0  0  0  0  0  0  0  0  0  0  0  0
   -6.2284   -3.7500    0.0000 C   0  0  0  0  0  0  0  0  0  0  0  0
   -6.2284   -5.2500    0.0000 C   0  0  0  0  0  0  0  0  0  0  0  0
   -7.5275   -6.0000    0.0000 N   0  0  0  0  0  0  0  0  0  0  0  0
   -8.8265   -5.2500    0.0000 C   0  0  0  0  0  0  0  0  0  0  0  0
  -10.1256   -6.0000    0.0000 C   0  0  0  0  0  0  0  0  0  0  0  0
  -10.1256   -7.5000    0.0000 N   0  0  0  0  0  0  0  0  0  0  0  0
  -11.4246   -8.2500    0.0000 C   0  0  0  0  0  0  0  0  0  0  0  0
  -12.8735   -7.8618    0.0000 C   0  0  0  0  0  0  0  0  0  0  0  0
  -13.2617   -9.3107    0.0000 O   0  0  0  0  0  0  0  0  0  0  0  0
  -11.8128   -9.6989    0.0000 C   0  0  0  0  0  0  0  0  0  0  0  0
   -8.8265   -8.2500    0.0000 C   0  0  0  0  0  0  0  0  0  0  0  0
   -7.5275   -7.5000    0.0000 C   0  0  0  0  0  0  0  0  0  0  0  0
   -4.9294   -6.0000    0.0000 C   0  0  0  0  0  0  0  0  0  0  0  0
   -3.6304   -5.2500    0.0000 C   0  0  0  0  0  0  0  0  0  0  0  0
   -1.0323   -0.7500    0.0000 C   0  0  0  0  0  0  0  0  0  0  0  0
    0.3943   -1.2135    0.0000 N   0  0  0  0  0  0  0  0  0  0  0  0
  1  2  2  0
  2  3  1  0
  3  4  1  0
  4  5  2  0
  5  6  1  0
  6  7  2  0
  7  8  1  0
  8  9  2  0
  9 10  1  0
 10 11  2  0
 11 12  1  0
 12 13  1  0
 13 14  2  0
  5 15  1  0
 15 16  2  0
 16 17  1  0
 17 18  1  0
 18 19  2  0
 19 20  1  0
 20 21  2  0
 21 22  1  0
 22 23  1  0
 23 24  1  0
 24 25  1  0
 25 26  1  0
 26 27  1  0
 27 28  1  0
 28 29  1  0
 25 30  1  0
 30 31  1  0
 21 32  1  0
 32 33  2  0
 16 34  1  0
 34 35  2  0
 35  1  1  0
 34  3  1  0
 14  6  1  0
 33 18  1  0
 13  9  1  0
 31 22  1  0
 29 26  1  0
M  END
>  <Compound_ID>  (103) 
CHEMBL4634721

>  <Molecule Name>  (103) 
nan

>  <Molecular Weight>  (103) 
466.55

>  <AlogP>  (103) 
3.54

>  <Smiles>  (103) 
c1cn2cc(-c3ccc4cn[nH]c4c3)nc(Nc3ccc(N4CCN(C5COC5)CC4)cc3)c2n1

>  <Standard Type>  (103) 
IC50

>  <Standard Relation>  (103) 
'='

>  <Standard Units>  (103) 
nM

>  <Standard Value>  (103) 
9.2

>  <Assay ChEMBL ID>  (103) 
CHEMBL4605675

>  <Assay Description>  (103) 
Inhibition of SYK (unknown origin) using XL665-labeled peptide as substrate in presence of ATP measured after 30 mins by TR-FRET assay

>  <BAO Format ID>  (103) 
BAO_0000357

>  <BAO Label>  (103) 
single protein format

>  <Assay Organism>  (103) 
Homo sapiens

>  <Target ChEMBL ID>  (103) 
CHEMBL2599

>  <Target Name>  (103) 
Tyrosine-protein kinase SYK

>  <Target Organism>  (103) 
Homo sapiens

>  <Target Type>  (103) 
SINGLE PROTEIN

>  <Document ChEMBL ID>  (103) 
CHEMBL4602710

>  <Source Description>  (103) 
Scientific Literature

>  <Document Journal>  (103) 
ACS Med Chem Lett

>  <Document Year>  (103) 
2020.0

>  <Active>  (103) 
1.0

>  <bits>  (103) 
<rdkit.DataStructs.cDataStructs.ExplicitBitVect object at 0x00000193F34023B0>

>  <Group>  (103) 
G2

$$$$

     RDKit          2D

 37 42  0  0  0  0  0  0  0  0999 V2000
   -2.0143    8.6263    0.0000 N   0  0  0  0  0  0  0  0  0  0  0  0
   -0.8995    7.6226    0.0000 C   0  0  0  0  0  0  0  0  0  0  0  0
    0.5271    8.0861    0.0000 C   0  0  0  0  0  0  0  0  0  0  0  0
    1.6418    7.0824    0.0000 N   0  0  0  0  0  0  0  0  0  0  0  0
    1.3299    5.6152    0.0000 C   0  0  0  0  0  0  0  0  0  0  0  0
   -0.0967    5.1517    0.0000 C   0  0  0  0  0  0  0  0  0  0  0  0
   -0.4086    3.6844    0.0000 C   0  0  0  0  0  0  0  0  0  0  0  0
    0.7062    2.6807    0.0000 C   0  0  0  0  0  0  0  0  0  0  0  0
    0.3943    1.2135    0.0000 N   0  0  0  0  0  0  0  0  0  0  0  0
    1.2760    0.0000    0.0000 C   0  0  0  0  0  0  0  0  0  0  0  0
    0.3943   -1.2135    0.0000 C   0  0  0  0  0  0  0  0  0  0  0  0
   -1.0323   -0.7500    0.0000 N   0  0  0  0  0  0  0  0  0  0  0  0
   -1.0323    0.7500    0.0000 C   0  0  0  0  0  0  0  0  0  0  0  0
   -2.1470    1.7537    0.0000 C   0  0  0  0  0  0  0  0  0  0  0  0
   -3.5736    1.2902    0.0000 N   0  0  0  0  0  0  0  0  0  0  0  0
   -4.6883    2.2939    0.0000 C   0  0  0  0  0  0  0  0  0  0  0  0
   -4.3764    3.7611    0.0000 C   0  0  0  0  0  0  0  0  0  0  0  0
   -5.4912    4.7648    0.0000 C   0  0  0  0  0  0  0  0  0  0  0  0
   -6.9177    4.3013    0.0000 C   0  0  0  0  0  0  0  0  0  0  0  0
   -8.0325    5.3050    0.0000 N   0  0  0  0  0  0  0  0  0  0  0  0
   -7.7206    6.7722    0.0000 C   0  0  0  0  0  0  0  0  0  0  0  0
   -8.8353    7.7759    0.0000 C   0  0  0  0  0  0  0  0  0  0  0  0
  -10.2619    7.3123    0.0000 N   0  0  0  0  0  0  0  0  0  0  0  0
  -11.3766    8.3160    0.0000 C   0  0  0  0  0  0  0  0  0  0  0  0
  -11.4551    9.8140    0.0000 C   0  0  0  0  0  0  0  0  0  0  0  0
  -12.9531    9.7355    0.0000 O   0  0  0  0  0  0  0  0  0  0  0  0
  -12.8746    8.2375    0.0000 C   0  0  0  0  0  0  0  0  0  0  0  0
  -10.5738    5.8451    0.0000 C   0  0  0  0  0  0  0  0  0  0  0  0
   -9.4590    4.8414    0.0000 C   0  0  0  0  0  0  0  0  0  0  0  0
   -7.2296    2.8340    0.0000 C   0  0  0  0  0  0  0  0  0  0  0  0
   -8.6562    2.3705    0.0000 O   0  0  0  0  0  0  0  0  0  0  0  0
   -8.9681    0.9033    0.0000 C   0  0  0  0  0  0  0  0  0  0  0  0
  -10.3946    0.4398    0.0000 C   0  0  0  0  0  0  0  0  0  0  0  0
  -10.7065   -1.0275    0.0000 O   0  0  0  0  0  0  0  0  0  0  0  0
   -6.1149    1.8303    0.0000 C   0  0  0  0  0  0  0  0  0  0  0  0
   -1.8351    3.2209    0.0000 N   0  0  0  0  0  0  0  0  0  0  0  0
   -1.2114    6.1554    0.0000 N   0  0  0  0  0  0  0  0  0  0  0  0
  1  2  1  0
  2  3  2  0
  3  4  1  0
  4  5  2  0
  5  6  1  0
  6  7  1  0
  7  8  2  0
  8  9  1  0
  9 10  1  0
 10 11  2  0
 11 12  1  0
 12 13  2  0
 13 14  1  0
 14 15  1  0
 15 16  1  0
 16 17  2  0
 17 18  1  0
 18 19  2  0
 19 20  1  0
 20 21  1  0
 21 22  1  0
 22 23  1  0
 23 24  1  0
 24 25  1  0
 25 26  1  0
 26 27  1  0
 23 28  1  0
 28 29  1  0
 19 30  1  0
 30 31  1  0
 31 32  1  0
 32 33  1  0
 33 34  1  0
 30 35  2  0
 14 36  2  0
  6 37  2  0
 37  2  1  0
 36  7  1  0
 13  9  1  0
 35 16  1  0
 29 20  1  0
 27 24  1  0
M  END
>  <Compound_ID>  (104) 
CHEMBL3902654

>  <Molecule Name>  (104) 
nan

>  <Molecular Weight>  (104) 
503.57

>  <AlogP>  (104) 
1.40

>  <Smiles>  (104) 
Nc1cncc(-c2cn3ccnc3c(Nc3ccc(N4CCN(C5COC5)CC4)c(OCCO)c3)n2)n1

>  <Standard Type>  (104) 
IC50

>  <Standard Relation>  (104) 
'='

>  <Standard Units>  (104) 
nM

>  <Standard Value>  (104) 
12.2

>  <Assay ChEMBL ID>  (104) 
CHEMBL3888106

>  <Assay Description>  (104) 
High Throughput Syk Biochemical Assay: Syk activity was measured using KinEASE (Cisbio), a time-resolved fluorescence resonance energy transfer (TR-FRET) immunoassay. In this assay, Syk-catalyzes the phosphorylation of a XL665-labeled peptide substrate. Europium conjugated phospho-tyrosine specific antibody binds the resulting phosphorylated peptide. Formation of phosphorylated peptide is quantified by TR-FRET with Europium as the donor and XL665 the acceptor in a 2-step endpoint assay. In brief, test compounds serially diluted in DMSO were delivered into Corning white, low volume, non-binding 384 well plates using the Echo 550 acoustic liquid dispenser (Labcyte®). Syk enzyme and substrates were dispensed into assay plates using a Multi-Flo (Bio-Tek Instruments). The standard 5 μL reaction mixture contained 20 μM ATP, 1 μM biotinylated peptide, 0.015 nM of Syk in reaction buffer (50 mM Hepes, pH 7.0, 0.02% NaN3, 0.1% BSA, 0.1 mM Orthovanadate, 5 mM MgCl2, 1 mM DTT, 0.025% NP-40). After 30 minutes of incubati

>  <BAO Format ID>  (104) 
BAO_0000357

>  <BAO Label>  (104) 
single protein format

>  <Assay Organism>  (104) 
Homo sapiens

>  <Target ChEMBL ID>  (104) 
CHEMBL2599

>  <Target Name>  (104) 
Tyrosine-protein kinase SYK

>  <Target Organism>  (104) 
Homo sapiens

>  <Target Type>  (104) 
SINGLE PROTEIN

>  <Document ChEMBL ID>  (104) 
CHEMBL3886190

>  <Source Description>  (104) 
BindingDB Database

>  <Document Journal>  (104) 
nan

>  <Document Year>  (104) 
2016.0

>  <Active>  (104) 
1.0

>  <bits>  (104) 
<rdkit.DataStructs.cDataStructs.ExplicitBitVect object at 0x00000193F3400270>

>  <Group>  (104) 
G2

$$$$

     RDKit          2D

 27 30  0  0  0  0  0  0  0  0999 V2000
   -7.7206    6.7722    0.0000 C   0  0  0  0  0  0  0  0  0  0  0  0
   -8.0325    5.3050    0.0000 O   0  0  0  0  0  0  0  0  0  0  0  0
   -6.9177    4.3013    0.0000 C   0  0  0  0  0  0  0  0  0  0  0  0
   -5.4912    4.7648    0.0000 C   0  0  0  0  0  0  0  0  0  0  0  0
   -4.3764    3.7611    0.0000 C   0  0  0  0  0  0  0  0  0  0  0  0
   -4.6883    2.2939    0.0000 C   0  0  0  0  0  0  0  0  0  0  0  0
   -3.5736    1.2902    0.0000 N   0  0  0  0  0  0  0  0  0  0  0  0
   -2.1470    1.7537    0.0000 C   0  0  0  0  0  0  0  0  0  0  0  0
   -1.8351    3.2209    0.0000 N   0  0  0  0  0  0  0  0  0  0  0  0
   -0.4086    3.6844    0.0000 C   0  0  0  0  0  0  0  0  0  0  0  0
   -0.0967    5.1517    0.0000 C   0  0  0  0  0  0  0  0  0  0  0  0
    1.3299    5.6152    0.0000 C   0  0  0  0  0  0  0  0  0  0  0  0
    1.6418    7.0824    0.0000 C   0  0  0  0  0  0  0  0  0  0  0  0
    0.5271    8.0861    0.0000 C   0  0  0  0  0  0  0  0  0  0  0  0
    0.8389    9.5533    0.0000 N   0  0  0  0  0  0  0  0  0  0  0  0
   -0.8995    7.6226    0.0000 N   0  0  0  0  0  0  0  0  0  0  0  0
   -1.2114    6.1554    0.0000 C   0  0  0  0  0  0  0  0  0  0  0  0
    0.7062    2.6807    0.0000 C   0  0  0  0  0  0  0  0  0  0  0  0
    0.3943    1.2135    0.0000 N   0  0  0  0  0  0  0  0  0  0  0  0
    1.2760    0.0000    0.0000 C   0  0  0  0  0  0  0  0  0  0  0  0
    0.3943   -1.2135    0.0000 C   0  0  0  0  0  0  0  0  0  0  0  0
   -1.0323   -0.7500    0.0000 N   0  0  0  0  0  0  0  0  0  0  0  0
   -1.0323    0.7500    0.0000 C   0  0  0  0  0  0  0  0  0  0  0  0
   -6.1149    1.8303    0.0000 C   0  0  0  0  0  0  0  0  0  0  0  0
   -7.2296    2.8340    0.0000 C   0  0  0  0  0  0  0  0  0  0  0  0
   -8.6562    2.3705    0.0000 O   0  0  0  0  0  0  0  0  0  0  0  0
   -8.9681    0.9033    0.0000 C   0  0  0  0  0  0  0  0  0  0  0  0
  1  2  1  0
  2  3  1  0
  3  4  2  0
  4  5  1  0
  5  6  2  0
  6  7  1  0
  7  8  1  0
  8  9  2  0
  9 10  1  0
 10 11  1  0
 11 12  2  0
 12 13  1  0
 13 14  2  0
 14 15  1  0
 14 16  1  0
 16 17  2  0
 10 18  2  0
 18 19  1  0
 19 20  1  0
 20 21  2  0
 21 22  1  0
 22 23  2  0
  6 24  1  0
 24 25  2  0
 25 26  1  0
 26 27  1  0
 25  3  1  0
 23  8  1  0
 17 11  1  0
 23 19  1  0
M  END
>  <Compound_ID>  (105) 
CHEMBL3962740

>  <Molecule Name>  (105) 
nan

>  <Molecular Weight>  (105) 
362.39

>  <AlogP>  (105) 
3.13

>  <Smiles>  (105) 
COc1ccc(Nc2nc(-c3ccc(N)nc3)cn3ccnc23)cc1OC

>  <Standard Type>  (105) 
IC50

>  <Standard Relation>  (105) 
'='

>  <Standard Units>  (105) 
nM

>  <Standard Value>  (105) 
53.0

>  <Assay ChEMBL ID>  (105) 
CHEMBL3888106

>  <Assay Description>  (105) 
High Throughput Syk Biochemical Assay: Syk activity was measured using KinEASE (Cisbio), a time-resolved fluorescence resonance energy transfer (TR-FRET) immunoassay. In this assay, Syk-catalyzes the phosphorylation of a XL665-labeled peptide substrate. Europium conjugated phospho-tyrosine specific antibody binds the resulting phosphorylated peptide. Formation of phosphorylated peptide is quantified by TR-FRET with Europium as the donor and XL665 the acceptor in a 2-step endpoint assay. In brief, test compounds serially diluted in DMSO were delivered into Corning white, low volume, non-binding 384 well plates using the Echo 550 acoustic liquid dispenser (Labcyte®). Syk enzyme and substrates were dispensed into assay plates using a Multi-Flo (Bio-Tek Instruments). The standard 5 μL reaction mixture contained 20 μM ATP, 1 μM biotinylated peptide, 0.015 nM of Syk in reaction buffer (50 mM Hepes, pH 7.0, 0.02% NaN3, 0.1% BSA, 0.1 mM Orthovanadate, 5 mM MgCl2, 1 mM DTT, 0.025% NP-40). After 30 minutes of incubati

>  <BAO Format ID>  (105) 
BAO_0000357

>  <BAO Label>  (105) 
single protein format

>  <Assay Organism>  (105) 
Homo sapiens

>  <Target ChEMBL ID>  (105) 
CHEMBL2599

>  <Target Name>  (105) 
Tyrosine-protein kinase SYK

>  <Target Organism>  (105) 
Homo sapiens

>  <Target Type>  (105) 
SINGLE PROTEIN

>  <Document ChEMBL ID>  (105) 
CHEMBL3886190

>  <Source Description>  (105) 
BindingDB Database

>  <Document Journal>  (105) 
nan

>  <Document Year>  (105) 
2016.0

>  <Active>  (105) 
1.0

>  <bits>  (105) 
<rdkit.DataStructs.cDataStructs.ExplicitBitVect object at 0x00000193F3400580>

>  <Group>  (105) 
G2

$$$$

     RDKit          2D

 34 37  0  0  0  0  0  0  0  0999 V2000
    3.0000    0.0000    0.0000 C   0  0  0  0  0  0  0  0  0  0  0  0
    1.5000    0.0000    0.0000 C   0  0  0  0  0  0  0  0  0  0  0  0
    0.7500   -1.2990    0.0000 C   0  0  0  0  0  0  0  0  0  0  0  0
   -0.7500   -1.2990    0.0000 C   0  0  0  0  0  0  0  0  0  0  0  0
   -1.5000   -2.5981    0.0000 N   0  0  0  0  0  0  0  0  0  0  0  0
   -3.0000   -2.5981    0.0000 C   0  0  0  0  0  0  0  0  0  0  0  0
   -3.7500   -1.2990    0.0000 C   0  0  0  0  0  0  0  0  0  0  0  0
   -5.2500   -1.2990    0.0000 C   0  0  0  0  0  0  0  0  0  0  0  0
   -6.0000    0.0000    0.0000 C   0  0  0  0  0  0  0  0  0  0  0  0
   -5.2500    1.2990    0.0000 F   0  0  0  0  0  0  0  0  0  0  0  0
   -7.5000    0.0000    0.0000 F   0  0  0  0  0  0  0  0  0  0  0  0
   -6.0000   -2.5981    0.0000 C   0  0  0  0  0  0  0  0  0  0  0  0
   -5.2500   -3.8971    0.0000 C   0  0  0  0  0  0  0  0  0  0  0  0
   -3.7500   -3.8971    0.0000 N   0  0  0  0  0  0  0  0  0  0  0  0
   -1.5000    0.0000    0.0000 N   0  0  0  0  0  0  0  0  0  0  0  0
   -0.7500    1.2990    0.0000 C   0  0  0  0  0  0  0  0  0  0  0  0
   -1.5000    2.5981    0.0000 C   0  0  0  0  0  0  0  0  0  0  0  0
   -0.7500    3.8971    0.0000 C   0  0  0  0  0  0  0  0  0  0  0  0
   -1.5000    5.1962    0.0000 C   0  0  0  0  0  0  0  0  0  0  0  0
   -3.0000    5.1962    0.0000 C   0  0  0  0  0  0  0  0  0  0  0  0
   -3.7500    6.4952    0.0000 C   0  0  0  0  0  0  0  0  0  0  0  0
   -5.0490    5.7452    0.0000 C   0  0  0  0  0  0  0  0  0  0  0  0
   -4.5000    7.7942    0.0000 O   0  0  0  0  0  0  0  0  0  0  0  0
   -2.4510    7.2452    0.0000 C   0  0  0  0  0  0  0  0  0  0  0  0
   -1.1519    6.4952    0.0000 C   0  0  0  0  0  0  0  0  0  0  0  0
    0.1471    7.2452    0.0000 C   0  0  0  0  0  0  0  0  0  0  0  0
    0.1471    8.7452    0.0000 C   0  0  0  0  0  0  0  0  0  0  0  0
    1.4462    9.4952    0.0000 C   0  0  0  0  0  0  0  0  0  0  0  0
    2.7452    8.7452    0.0000 O   0  0  0  0  0  0  0  0  0  0  0  0
   -1.1519    9.4952    0.0000 C   0  0  0  0  0  0  0  0  0  0  0  0
   -2.4510    8.7452    0.0000 C   0  0  0  0  0  0  0  0  0  0  0  0
   -3.7500    3.8971    0.0000 N   0  0  0  0  0  0  0  0  0  0  0  0
   -3.0000    2.5981    0.0000 C   0  0  0  0  0  0  0  0  0  0  0  0
    0.7500    1.2990    0.0000 C   0  0  0  0  0  0  0  0  0  0  0  0
  1  2  1  0
  2  3  2  0
  3  4  1  0
  4  5  1  0
  5  6  1  0
  6  7  2  0
  7  8  1  0
  8  9  1  0
  9 10  1  0
  9 11  1  0
  8 12  2  0
 12 13  1  0
 13 14  2  0
  4 15  2  0
 15 16  1  0
 16 17  1  0
 17 18  2  0
 18 19  1  0
 19 20  2  0
 20 21  1  0
 21 22  1  0
 21 23  1  0
 24 21  1  6
 24 25  1  0
 25 26  1  0
 26 27  1  0
 27 28  1  1
 28 29  1  0
 27 30  1  0
 30 31  1  0
 20 32  1  0
 32 33  2  0
 16 34  2  0
 34  2  1  0
 14  6  1  0
 33 17  1  0
 31 24  1  0
M  END
>  <Compound_ID>  (106) 
CHEMBL3933885

>  <Molecule Name>  (106) 
nan

>  <Molecular Weight>  (106) 
511.62

>  <AlogP>  (106) 
None

>  <Smiles>  (106) 
Cc1cc(Nc2cc(C(F)F)ccn2)nc(-c2ccc(C(C)(O)[C@H]3CC[C@H](CO)CC3)nc2)c1

>  <Standard Type>  (106) 
IC50

>  <Standard Relation>  (106) 
'='

>  <Standard Units>  (106) 
nM

>  <Standard Value>  (106) 
1.0

>  <Assay ChEMBL ID>  (106) 
CHEMBL3887083

>  <Assay Description>  (106) 
Homogeneous Time-Resolved Fluorescence (HTRF) Assay: A recombinant GST-hSyk fusion protein was used to measure potency of compounds to inhibit human Syk activity. The recombinant human GST-Syk (Carna Biosciences #08-176) (5 pM final concentration) was incubated with various concentrations of the inhibitor diluted in DMSO (0.1% final concentration) for 10 minutes at room temperature in 15 mM Tris-HCl (pH 7.5), 0.01% tween 20, 2 mM DTT in 384 well plate format. To initiate the reaction the biotinylated substrate peptide (250 nM final concentration) that contains the phosphorylation site for Syk was added with magnesium (5 mM final concentration) and ATP (25 uM final concentration). Final volume of the reaction was 10 uL. Phosphorylation of the peptide was allowed to proceed for 45x at room temperature. To quench the reaction and detect the phosphorylated product, 2 nM of a Europium-anti-phosphotyrosine antibody (Perkin Elmer #AD0161) and 70 nM SA-APC (Perkin-Elmer #CR130-100) were added together in 15 mM Tris pH 7.5.

>  <BAO Format ID>  (106) 
BAO_0000357

>  <BAO Label>  (106) 
single protein format

>  <Assay Organism>  (106) 
Homo sapiens

>  <Target ChEMBL ID>  (106) 
CHEMBL2599

>  <Target Name>  (106) 
Tyrosine-protein kinase SYK

>  <Target Organism>  (106) 
Homo sapiens

>  <Target Type>  (106) 
SINGLE PROTEIN

>  <Document ChEMBL ID>  (106) 
CHEMBL3886158

>  <Source Description>  (106) 
BindingDB Database

>  <Document Journal>  (106) 
nan

>  <Document Year>  (106) 
2015.0

>  <Active>  (106) 
1.0

>  <bits>  (106) 
<rdkit.DataStructs.cDataStructs.ExplicitBitVect object at 0x00000193F3400350>

>  <Group>  (106) 
G2

$$$$

     RDKit          2D

 27 30  0  0  0  0  0  0  0  0999 V2000
   -6.0000   -7.7942    0.0000 N   0  0  0  0  0  0  0  0  0  0  0  0
   -5.2500   -6.4952    0.0000 C   0  0  0  0  0  0  0  0  0  0  0  0
   -3.7500   -6.4952    0.0000 O   0  0  0  0  0  0  0  0  0  0  0  0
   -6.0000   -5.1962    0.0000 C   0  0  0  0  0  0  0  0  0  0  0  0
   -7.5000   -5.1962    0.0000 C   0  0  0  0  0  0  0  0  0  0  0  0
   -8.2500   -3.8971    0.0000 C   0  0  0  0  0  0  0  0  0  0  0  0
   -7.5000   -2.5981    0.0000 C   0  0  0  0  0  0  0  0  0  0  0  0
   -6.0000   -2.5981    0.0000 N   0  0  0  0  0  0  0  0  0  0  0  0
   -5.2500   -3.8971    0.0000 C   0  0  0  0  0  0  0  0  0  0  0  0
   -3.7500   -3.8971    0.0000 C   0  0  0  0  0  0  0  0  0  0  0  0
   -3.0000   -2.5981    0.0000 O   0  0  0  0  0  0  0  0  0  0  0  0
   -1.5000   -2.5981    0.0000 C   0  0  0  0  0  0  0  0  0  0  0  0
   -0.7500   -3.8971    0.0000 C   0  0  0  0  0  0  0  0  0  0  0  0
    0.7500   -3.8971    0.0000 C   0  0  0  0  0  0  0  0  0  0  0  0
    1.5000   -5.1962    0.0000 C   0  0  0  0  0  0  0  0  0  0  0  0
    0.7500   -6.4952    0.0000 C   0  0  0  0  0  0  0  0  0  0  0  0
    1.5000   -7.7942    0.0000 C   0  0  0  0  0  0  0  0  0  0  0  0
    3.0000   -7.7942    0.0000 C   0  0  0  0  0  0  0  0  0  0  0  0
    3.7500   -6.4952    0.0000 C   0  0  0  0  0  0  0  0  0  0  0  0
    3.0000   -5.1962    0.0000 C   0  0  0  0  0  0  0  0  0  0  0  0
    1.5000   -2.5981    0.0000 C   0  0  0  0  0  0  0  0  0  0  0  0
    0.7500   -1.2990    0.0000 C   0  0  0  0  0  0  0  0  0  0  0  0
    1.5000    0.0000    0.0000 N   0  0  0  0  0  0  0  0  0  0  0  0
    0.7500    1.2990    0.0000 C   0  0  0  0  0  0  0  0  0  0  0  0
   -0.7500    1.2990    0.0000 C   0  0  0  0  0  0  0  0  0  0  0  0
   -1.5000    0.0000    0.0000 C   0  0  0  0  0  0  0  0  0  0  0  0
   -0.7500   -1.2990    0.0000 C   0  0  0  0  0  0  0  0  0  0  0  0
  1  2  1  0
  2  3  2  0
  2  4  1  0
  4  5  2  0
  5  6  1  0
  6  7  2  0
  7  8  1  0
  8  9  2  0
  9 10  1  0
 10 11  1  0
 11 12  1  0
 12 13  2  0
 13 14  1  0
 14 15  1  0
 15 16  2  0
 16 17  1  0
 17 18  2  0
 18 19  1  0
 19 20  2  0
 14 21  2  0
 21 22  1  0
 22 23  2  0
 23 24  1  0
 24 25  2  0
 25 26  1  0
 26 27  2  0
  9  4  1  0
 27 12  1  0
 20 15  1  0
 27 22  1  0
M  END
>  <Compound_ID>  (107) 
CHEMBL3653802

>  <Molecule Name>  (107) 
nan

>  <Molecular Weight>  (107) 
355.4

>  <AlogP>  (107) 
3.97

>  <Smiles>  (107) 
NC(=O)c1cccnc1COc1cc(-c2ccccc2)cc2ncccc12

>  <Standard Type>  (107) 
IC50

>  <Standard Relation>  (107) 
'='

>  <Standard Units>  (107) 
nM

>  <Standard Value>  (107) 
46.3

>  <Assay ChEMBL ID>  (107) 
CHEMBL3706124

>  <Assay Description>  (107) 
Kinase Assay: Recombinant human Syk (amino acids 342-635) was expressed as a fusion protein with an N-terminal GST tag, affinity-purified and deep-frozen at a concentration of approx. 50-100 uM in test buffer (25 mM HEPES pH7.5; 25 mM MgCl2; 5 mM MnCl2; 50 mM KCl; either 0.2% BSA or 0.2% HSA; 0.01% CHAPS; 100 uM Na3VO4; 0.5 mM DTT) and 10% glycerol at -80 C. until use.The catalytic activity of the GST-Syk kinase fusion protein was determined using the Kinase Glo Luminescence Kinase test (Promega; V6712). In this homogeneous test the amount of ATP remaining after the kinase reaction is quantified by a luciferin-luciferase reaction using luminescence. The luminescence signal obtained correlates with the amount of ATP still present and thus correlates inversely with the activity of the protein kinase.MethodThe test compounds were dissolved in 100% DMSO at a concentration of 10 mM and diluted in DMSO to a concentration of 1 mM.

>  <BAO Format ID>  (107) 
BAO_0000357

>  <BAO Label>  (107) 
single protein format

>  <Assay Organism>  (107) 
Homo sapiens

>  <Target ChEMBL ID>  (107) 
CHEMBL2599

>  <Target Name>  (107) 
Tyrosine-protein kinase SYK

>  <Target Organism>  (107) 
Homo sapiens

>  <Target Type>  (107) 
SINGLE PROTEIN

>  <Document ChEMBL ID>  (107) 
CHEMBL3638790

>  <Source Description>  (107) 
BindingDB Database

>  <Document Journal>  (107) 
nan

>  <Document Year>  (107) 
2014.0

>  <Active>  (107) 
1.0

>  <bits>  (107) 
<rdkit.DataStructs.cDataStructs.ExplicitBitVect object at 0x00000193F3401E70>

>  <Group>  (107) 
G2

$$$$

     RDKit          2D

 32 36  0  0  0  0  0  0  0  0999 V2000
   -4.3786   -5.1199    0.0000 C   0  0  0  0  0  0  0  0  0  0  0  0
   -2.9520   -4.6564    0.0000 N   0  0  0  0  0  0  0  0  0  0  0  0
   -2.6401   -3.1891    0.0000 C   0  0  0  0  0  0  0  0  0  0  0  0
   -3.7548   -2.1855    0.0000 O   0  0  0  0  0  0  0  0  0  0  0  0
   -1.2135   -2.7256    0.0000 C   0  0  0  0  0  0  0  0  0  0  0  0
   -0.0000   -3.6073    0.0000 N   0  0  0  0  0  0  0  0  0  0  0  0
    1.2135   -2.7256    0.0000 N   0  0  0  0  0  0  0  0  0  0  0  0
    2.6401   -3.1891    0.0000 C   0  0  0  0  0  0  0  0  0  0  0  0
    0.7500   -1.2990    0.0000 C   0  0  0  0  0  0  0  0  0  0  0  0
    1.5000    0.0000    0.0000 C   0  0  0  0  0  0  0  0  0  0  0  0
    0.7500    1.2990    0.0000 C   0  0  0  0  0  0  0  0  0  0  0  0
   -0.7500    1.2990    0.0000 C   0  0  0  0  0  0  0  0  0  0  0  0
   -1.5000    2.5981    0.0000 N   0  0  0  0  0  0  0  0  0  0  0  0
   -0.7500    3.8971    0.0000 C   0  0  0  0  0  0  0  0  0  0  0  0
    0.7500    3.8971    0.0000 N   0  0  0  0  0  0  0  0  0  0  0  0
    1.5000    5.1962    0.0000 C   0  0  0  0  0  0  0  0  0  0  0  0
    0.7500    6.4952    0.0000 C   0  0  0  0  0  0  0  0  0  0  0  0
   -0.7500    6.4952    0.0000 C   0  0  0  0  0  0  0  0  0  0  0  0
   -1.5000    7.7942    0.0000 N   0  0  0  0  0  0  0  0  0  0  0  0
   -2.9918    7.9510    0.0000 C   0  0  0  0  0  0  0  0  0  0  0  0
   -3.3037    9.4182    0.0000 C   0  0  0  0  0  0  0  0  0  0  0  0
   -4.6740   10.0283    0.0000 N   0  0  0  0  0  0  0  0  0  0  0  0
   -4.8308   11.5201    0.0000 C   0  0  0  0  0  0  0  0  0  0  0  0
   -3.8868   12.6858    0.0000 C   0  0  0  0  0  0  0  0  0  0  0  0
   -5.0525   13.6298    0.0000 N   0  0  0  0  0  0  0  0  0  0  0  0
   -5.9965   12.4641    0.0000 C   0  0  0  0  0  0  0  0  0  0  0  0
   -2.0046   10.1682    0.0000 C   0  0  0  0  0  0  0  0  0  0  0  0
   -1.8478   11.6600    0.0000 C   0  0  0  0  0  0  0  0  0  0  0  0
   -0.8899    9.1645    0.0000 N   0  0  0  0  0  0  0  0  0  0  0  0
   -1.5000    5.1962    0.0000 N   0  0  0  0  0  0  0  0  0  0  0  0
   -1.5000    0.0000    0.0000 C   0  0  0  0  0  0  0  0  0  0  0  0
   -0.7500   -1.2990    0.0000 C   0  0  0  0  0  0  0  0  0  0  0  0
  1  2  1  0
  2  3  1  0
  3  4  2  0
  3  5  1  0
  5  6  2  0
  6  7  1  0
  7  8  1  0
  7  9  1  0
  9 10  2  0
 10 11  1  0
 11 12  2  0
 12 13  1  0
 13 14  1  0
 14 15  2  0
 15 16  1  0
 16 17  2  0
 17 18  1  0
 18 19  1  0
 19 20  1  0
 20 21  2  0
 21 22  1  0
 22 23  1  0
 23 24  1  0
 24 25  1  0
 25 26  1  0
 21 27  1  0
 27 28  1  0
 27 29  2  0
 18 30  2  0
 12 31  1  0
 31 32  2  0
 32  5  1  0
 32  9  1  0
 30 14  1  0
 29 19  1  0
 26 23  1  0
M  END
>  <Compound_ID>  (108) 
CHEMBL4743842

>  <Molecule Name>  (108) 
nan

>  <Molecular Weight>  (108) 
432.49

>  <AlogP>  (108) 
1.34

>  <Smiles>  (108) 
CNC(=O)c1nn(C)c2ccc(Nc3nccc(-n4cc(NC5CNC5)c(C)n4)n3)cc12

>  <Standard Type>  (108) 
IC50

>  <Standard Relation>  (108) 
'='

>  <Standard Units>  (108) 
nM

>  <Standard Value>  (108) 
1.5

>  <Assay ChEMBL ID>  (108) 
CHEMBL4701487

>  <Assay Description>  (108) 
Inhibition of SYK (unknown origin)

>  <BAO Format ID>  (108) 
BAO_0000357

>  <BAO Label>  (108) 
single protein format

>  <Assay Organism>  (108) 
Homo sapiens

>  <Target ChEMBL ID>  (108) 
CHEMBL2599

>  <Target Name>  (108) 
Tyrosine-protein kinase SYK

>  <Target Organism>  (108) 
Homo sapiens

>  <Target Type>  (108) 
SINGLE PROTEIN

>  <Document ChEMBL ID>  (108) 
CHEMBL4699472

>  <Source Description>  (108) 
Scientific Literature

>  <Document Journal>  (108) 
Bioorg Med Chem Lett

>  <Document Year>  (108) 
2020.0

>  <Active>  (108) 
1.0

>  <bits>  (108) 
<rdkit.DataStructs.cDataStructs.ExplicitBitVect object at 0x00000193F3400D60>

>  <Group>  (108) 
G2

$$$$

     RDKit          2D

 34 39  0  0  0  0  0  0  0  0999 V2000
   -3.5736    1.2902    0.0000 C   0  0  0  0  0  0  0  0  0  0  0  0
   -2.1470    1.7537    0.0000 C   0  0  0  0  0  0  0  0  0  0  0  0
   -1.8351    3.2209    0.0000 C   0  0  0  0  0  0  0  0  0  0  0  0
   -0.4086    3.6844    0.0000 C   0  0  0  0  0  0  0  0  0  0  0  0
   -0.0967    5.1517    0.0000 N   0  0  0  0  0  0  0  0  0  0  0  0
    1.3299    5.6152    0.0000 C   0  0  0  0  0  0  0  0  0  0  0  0
    2.4446    4.6115    0.0000 N   0  0  0  0  0  0  0  0  0  0  0  0
    3.8712    5.0750    0.0000 C   0  0  0  0  0  0  0  0  0  0  0  0
    4.1831    6.5422    0.0000 C   0  0  0  0  0  0  0  0  0  0  0  0
    3.0684    7.5459    0.0000 C   0  0  0  0  0  0  0  0  0  0  0  0
    3.3802    9.0132    0.0000 C   0  0  0  0  0  0  0  0  0  0  0  0
    2.3765   10.1279    0.0000 C   0  0  0  0  0  0  0  0  0  0  0  0
    3.1265   11.4269    0.0000 N   0  0  0  0  0  0  0  0  0  0  0  0
    2.5164   12.7972    0.0000 C   0  0  0  0  0  0  0  0  0  0  0  0
    4.5937   11.1150    0.0000 C   0  0  0  0  0  0  0  0  0  0  0  0
    4.7505    9.6233    0.0000 N   0  0  0  0  0  0  0  0  0  0  0  0
    1.6418    7.0824    0.0000 N   0  0  0  0  0  0  0  0  0  0  0  0
    0.7062    2.6807    0.0000 C   0  0  0  0  0  0  0  0  0  0  0  0
    0.3943    1.2135    0.0000 C   0  0  0  0  0  0  0  0  0  0  0  0
    1.2760    0.0000    0.0000 C   0  0  0  0  0  0  0  0  0  0  0  0
    0.3943   -1.2135    0.0000 C   0  0  0  0  0  0  0  0  0  0  0  0
    0.8578   -2.6401    0.0000 C   0  0  0  0  0  0  0  0  0  0  0  0
    2.3250   -2.9520    0.0000 O   0  0  0  0  0  0  0  0  0  0  0  0
   -0.1459   -3.7548    0.0000 N   0  0  0  0  0  0  0  0  0  0  0  0
   -1.6131   -3.4430    0.0000 C   0  0  0  0  0  0  0  0  0  0  0  0
   -2.6168   -4.5577    0.0000 C   0  0  0  0  0  0  0  0  0  0  0  0
   -2.1533   -5.9843    0.0000 N   0  0  0  0  0  0  0  0  0  0  0  0
   -2.9033   -7.2833    0.0000 C   0  0  0  0  0  0  0  0  0  0  0  0
   -1.8996   -8.3980    0.0000 C   0  0  0  0  0  0  0  0  0  0  0  0
   -0.5292   -7.7879    0.0000 N   0  0  0  0  0  0  0  0  0  0  0  0
   -0.6860   -6.2961    0.0000 C   0  0  0  0  0  0  0  0  0  0  0  0
    0.3177   -5.1814    0.0000 C   0  0  0  0  0  0  0  0  0  0  0  0
   -1.0323   -0.7500    0.0000 N   0  0  0  0  0  0  0  0  0  0  0  0
   -1.0323    0.7500    0.0000 C   0  0  0  0  0  0  0  0  0  0  0  0
  1  2  1  0
  2  3  2  0
  3  4  1  0
  4  5  1  0
  5  6  1  0
  6  7  2  0
  7  8  1  0
  8  9  2  0
  9 10  1  0
 10 11  1  0
 11 12  2  0
 12 13  1  0
 13 14  1  0
 13 15  1  0
 15 16  2  0
 10 17  2  0
  4 18  2  0
 18 19  1  0
 19 20  1  0
 20 21  2  0
 21 22  1  0
 22 23  2  0
 22 24  1  0
 24 25  1  0
 25 26  1  0
 26 27  1  0
 27 28  1  0
 28 29  2  0
 29 30  1  0
 30 31  2  0
 31 32  1  0
 21 33  1  0
 33 34  1  0
 34  2  1  0
 17  6  1  0
 34 19  2  0
 16 11  1  0
 32 24  1  0
 31 27  1  0
M  END
>  <Compound_ID>  (109) 
CHEMBL3668834

>  <Molecule Name>  (109) 
nan

>  <Molecular Weight>  (109) 
453.51

>  <AlogP>  (109) 
3.26

>  <Smiles>  (109) 
Cc1cc(Nc2nccc(-c3cn(C)cn3)n2)cc2cc(C(=O)N3CCn4ccnc4C3)[nH]c12

>  <Standard Type>  (109) 
IC50

>  <Standard Relation>  (109) 
'='

>  <Standard Units>  (109) 
nM

>  <Standard Value>  (109) 
36.3

>  <Assay ChEMBL ID>  (109) 
CHEMBL3706038

>  <Assay Description>  (109) 
In Vitro Kinase Assay: Recombinant human Syk (amino acids 342-635) was expressed as a fusion protein with an N-terminal GST tag, affinity-purified and deep-frozen at a concentration of approx. 50-100 uM in test buffer (25 mM HEPES pH7.5; 25 mM MgCl2; 5 mM MnCl2; 50 mM KCl; 1% HSA; 0.01% CHAPS; 100 uM Na3VO4; 0.5 mM DTT) and 10% glycerol at -80 C. until use.The catalytic activity of the GST-Syk kinase fusion protein was determined using the Kinase Glo Luminescence Kinase test (Promega; V6712). In this homogeneous test the amount of ATP remaining after the kinase reaction is quantified by a luciferin-luciferase reaction using luminescence. The luminescence signal obtained correlates with the amount of ATP still present and thus correlates inversely with the activity of the protein kinase. Method:The test compounds were dissolved in 100% DMSO at a concentration of 10 mM and diluted in DMSO to a concentration of 1 mM. All further dilutions of the substances were carried out with 7.5% DMSO.

>  <BAO Format ID>  (109) 
BAO_0000357

>  <BAO Label>  (109) 
single protein format

>  <Assay Organism>  (109) 
Homo sapiens

>  <Target ChEMBL ID>  (109) 
CHEMBL2599

>  <Target Name>  (109) 
Tyrosine-protein kinase SYK

>  <Target Organism>  (109) 
Homo sapiens

>  <Target Type>  (109) 
SINGLE PROTEIN

>  <Document ChEMBL ID>  (109) 
CHEMBL3638603

>  <Source Description>  (109) 
BindingDB Database

>  <Document Journal>  (109) 
nan

>  <Document Year>  (109) 
2015.0

>  <Active>  (109) 
1.0

>  <bits>  (109) 
<rdkit.DataStructs.cDataStructs.ExplicitBitVect object at 0x00000193F3401700>

>  <Group>  (109) 
G2

$$$$

     RDKit          2D

 27 30  0  0  0  0  0  0  0  0999 V2000
    3.0000    0.0000    0.0000 O   0  0  0  0  0  0  0  0  0  0  0  0
    1.5000    0.0000    0.0000 C   0  0  0  0  0  0  0  0  0  0  0  0
    0.7500   -1.2990    0.0000 C   0  0  0  0  0  0  0  0  0  0  0  0
   -0.7500   -1.2990    0.0000 O   0  0  0  0  0  0  0  0  0  0  0  0
   -1.5000    0.0000    0.0000 C   0  0  0  0  0  0  0  0  0  0  0  0
   -3.0000    0.0000    0.0000 C   0  0  0  0  0  0  0  0  0  0  0  0
   -3.7500    1.2990    0.0000 C   0  0  0  0  0  0  0  0  0  0  0  0
   -3.0000    2.5981    0.0000 C   0  0  0  0  0  0  0  0  0  0  0  0
   -3.7500    3.8971    0.0000 N   0  0  0  0  0  0  0  0  0  0  0  0
   -3.0000    5.1962    0.0000 C   0  0  0  0  0  0  0  0  0  0  0  0
   -1.5000    5.1962    0.0000 N   0  0  0  0  0  0  0  0  0  0  0  0
   -0.7500    6.4952    0.0000 C   0  0  0  0  0  0  0  0  0  0  0  0
    0.7500    6.4952    0.0000 N   0  0  0  0  0  0  0  0  0  0  0  0
    1.5000    5.1962    0.0000 C   0  0  0  0  0  0  0  0  0  0  0  0
    0.7500    3.8971    0.0000 C   0  0  0  0  0  0  0  0  0  0  0  0
    1.5000    2.5981    0.0000 C   0  0  0  0  0  0  0  0  0  0  0  0
    3.0000    2.5981    0.0000 C   0  0  0  0  0  0  0  0  0  0  0  0
    3.7500    3.8971    0.0000 C   0  0  0  0  0  0  0  0  0  0  0  0
    5.2500    3.8971    0.0000 O   0  0  0  0  0  0  0  0  0  0  0  0
    3.0000    5.1962    0.0000 C   0  0  0  0  0  0  0  0  0  0  0  0
   -1.5000    7.7942    0.0000 N   0  0  0  0  0  0  0  0  0  0  0  0
   -3.0000    7.7942    0.0000 C   0  0  0  0  0  0  0  0  0  0  0  0
   -3.7500    6.4952    0.0000 C   0  0  0  0  0  0  0  0  0  0  0  0
   -5.2500    6.4952    0.0000 F   0  0  0  0  0  0  0  0  0  0  0  0
   -1.5000    2.5981    0.0000 C   0  0  0  0  0  0  0  0  0  0  0  0
   -0.7500    1.2990    0.0000 C   0  0  0  0  0  0  0  0  0  0  0  0
    0.7500    1.2990    0.0000 N   0  0  0  0  0  0  0  0  0  0  0  0
  1  2  2  0
  2  3  1  0
  3  4  1  0
  4  5  1  0
  5  6  2  0
  6  7  1  0
  7  8  2  0
  8  9  1  0
  9 10  1  0
 10 11  2  0
 11 12  1  0
 12 13  1  0
 13 14  1  0
 14 15  2  0
 15 16  1  0
 16 17  2  0
 17 18  1  0
 18 19  1  0
 18 20  2  0
 12 21  2  0
 21 22  1  0
 22 23  2  0
 23 24  1  0
  8 25  1  0
 25 26  2  0
 26 27  1  0
 27  2  1  0
 26  5  1  0
 23 10  1  0
 20 14  1  0
M  END
>  <Compound_ID>  (110) 
CHEMBL3913292

>  <Molecule Name>  (110) 
nan

>  <Molecular Weight>  (110) 
367.34

>  <AlogP>  (110) 
3.14

>  <Smiles>  (110) 
O=C1COc2ccc(Nc3nc(Nc4cccc(O)c4)ncc3F)cc2N1

>  <Standard Type>  (110) 
IC50

>  <Standard Relation>  (110) 
'='

>  <Standard Units>  (110) 
nM

>  <Standard Value>  (110) 
37.8

>  <Assay ChEMBL ID>  (110) 
CHEMBL3889292

>  <Assay Description>  (110) 
Biochemical Assay: Several 2,4-pyrimidinediamine compounds were tested for the ability to inhibit Syk kinase catalyzed phosphorylation of a peptide substrate in a biochemical fluorescenced polarization assay with isolated Syk kinase. In this experiment, Compounds were diluted to 1% DMSO in kinase buffer (20 mM HEPES, pH 7.4, 5 mM MgCl2, 2 mM MnCl2, 1 mM DTT, 0.1 mg/mL acetylated Bovine Gamma Globulin). Compound in 1% DMSO (0.2% DMSO final) was mixed with ATP/substrate solution at room temperature. Syk kinase (Upstate, Lake Placid N.Y.) was added to a final reaction volume of 20 uL, and the reaction was incubated for 30 minutes at room temperature. Final enzyme reaction conditions were 20 mM HEPES, pH 7.4, 5 mM MgCl2, 2 mM MnCl2, 1 mM DTT, 0.1 mg/mL acetylated Bovine Gamma Globulin, 0.125 ng Syk, 4 uM ATP, 2.5 uM peptide substrate (biotin-EQEDEPEGDYEEVLE-CONH2, SynPep Corporation). EDTA (10 mM final)/anti-phosphotyrosine antibody (1x final)/fluorescent phosphopeptide tracer (0.5x final) was added in FP Dilution Buffer to stop the reaction for a total volume of 40 uL according to manufacturer's instructions (PanVera Corporation) The plate was incubated for 30 minutes in the dark at room temperature. Plates were read on a Polarion fluorescence polarization plate reader (Tecan). Data were converted to amount of phosphopeptide present using a calibration curve generated by competition with the phosphopeptide competitor provided in the Tyrosine Kinase Assay Kit, Green (PanVera Corporation).

>  <BAO Format ID>  (110) 
BAO_0000357

>  <BAO Label>  (110) 
single protein format

>  <Assay Organism>  (110) 
Homo sapiens

>  <Target ChEMBL ID>  (110) 
CHEMBL2599

>  <Target Name>  (110) 
Tyrosine-protein kinase SYK

>  <Target Organism>  (110) 
Homo sapiens

>  <Target Type>  (110) 
SINGLE PROTEIN

>  <Document ChEMBL ID>  (110) 
CHEMBL3887020

>  <Source Description>  (110) 
BindingDB Database

>  <Document Journal>  (110) 
nan

>  <Document Year>  (110) 
2016.0

>  <Active>  (110) 
1.0

>  <bits>  (110) 
<rdkit.DataStructs.cDataStructs.ExplicitBitVect object at 0x00000193F3401BD0>

>  <Group>  (110) 
G2

$$$$

     RDKit          2D

 38 42  0  0  0  0  0  0  0  0999 V2000
   -7.7206    6.7722    0.0000 C   0  0  0  0  0  0  0  0  0  0  0  0
   -8.0325    5.3050    0.0000 O   0  0  0  0  0  0  0  0  0  0  0  0
   -6.9177    4.3013    0.0000 C   0  0  0  0  0  0  0  0  0  0  0  0
   -5.4912    4.7648    0.0000 C   0  0  0  0  0  0  0  0  0  0  0  0
   -4.3764    3.7611    0.0000 C   0  0  0  0  0  0  0  0  0  0  0  0
   -4.6883    2.2939    0.0000 C   0  0  0  0  0  0  0  0  0  0  0  0
   -3.5736    1.2902    0.0000 N   0  0  0  0  0  0  0  0  0  0  0  0
   -2.1470    1.7537    0.0000 C   0  0  0  0  0  0  0  0  0  0  0  0
   -1.8351    3.2209    0.0000 C   0  0  0  0  0  0  0  0  0  0  0  0
   -0.4086    3.6844    0.0000 C   0  0  0  0  0  0  0  0  0  0  0  0
   -0.0967    5.1517    0.0000 C   0  0  0  0  0  0  0  0  0  0  0  0
    1.3299    5.6152    0.0000 C   0  0  0  0  0  0  0  0  0  0  0  0
    1.6418    7.0824    0.0000 C   0  0  0  0  0  0  0  0  0  0  0  0
    0.5271    8.0861    0.0000 C   0  0  0  0  0  0  0  0  0  0  0  0
   -0.8995    7.6226    0.0000 C   0  0  0  0  0  0  0  0  0  0  0  0
   -2.0143    8.6263    0.0000 C   0  0  0  0  0  0  0  0  0  0  0  0
   -3.4408    8.1628    0.0000 O   0  0  0  0  0  0  0  0  0  0  0  0
   -1.7024   10.0935    0.0000 N   0  0  0  0  0  0  0  0  0  0  0  0
   -2.8171   11.0972    0.0000 C   0  0  0  0  0  0  0  0  0  0  0  0
   -2.5052   12.5644    0.0000 C   0  0  0  0  0  0  0  0  0  0  0  0
   -3.6200   13.5681    0.0000 C   0  0  0  0  0  0  0  0  0  0  0  0
   -5.0465   13.1046    0.0000 C   0  0  0  0  0  0  0  0  0  0  0  0
   -6.1613   14.1083    0.0000 C   0  0  0  0  0  0  0  0  0  0  0  0
   -7.5878   13.6448    0.0000 O   0  0  0  0  0  0  0  0  0  0  0  0
   -5.8494   15.5755    0.0000 O   0  0  0  0  0  0  0  0  0  0  0  0
   -5.3584   11.6374    0.0000 C   0  0  0  0  0  0  0  0  0  0  0  0
   -4.2437   10.6337    0.0000 C   0  0  0  0  0  0  0  0  0  0  0  0
   -1.2114    6.1554    0.0000 C   0  0  0  0  0  0  0  0  0  0  0  0
    0.7062    2.6807    0.0000 N   0  0  0  0  0  0  0  0  0  0  0  0
    0.3943    1.2135    0.0000 N   0  0  0  0  0  0  0  0  0  0  0  0
    1.2760    0.0000    0.0000 C   0  0  0  0  0  0  0  0  0  0  0  0
    0.3943   -1.2135    0.0000 C   0  0  0  0  0  0  0  0  0  0  0  0
   -1.0323   -0.7500    0.0000 N   0  0  0  0  0  0  0  0  0  0  0  0
   -1.0323    0.7500    0.0000 C   0  0  0  0  0  0  0  0  0  0  0  0
   -6.1149    1.8303    0.0000 N   0  0  0  0  0  0  0  0  0  0  0  0
   -7.2296    2.8340    0.0000 C   0  0  0  0  0  0  0  0  0  0  0  0
   -8.6562    2.3705    0.0000 O   0  0  0  0  0  0  0  0  0  0  0  0
   -8.9681    0.9033    0.0000 C   0  0  0  0  0  0  0  0  0  0  0  0
  1  2  1  0
  2  3  1  0
  3  4  2  0
  4  5  1  0
  5  6  2  0
  6  7  1  0
  7  8  1  0
  8  9  2  0
  9 10  1  0
 10 11  1  0
 11 12  2  0
 12 13  1  0
 13 14  2  0
 14 15  1  0
 15 16  1  0
 16 17  2  0
 16 18  1  0
 18 19  1  0
 19 20  2  0
 20 21  1  0
 21 22  2  0
 22 23  1  0
 23 24  2  0
 23 25  1  0
 22 26  1  0
 26 27  2  0
 15 28  2  0
 10 29  2  0
 29 30  1  0
 30 31  1  0
 31 32  2  0
 32 33  1  0
 33 34  2  0
  6 35  1  0
 35 36  2  0
 36 37  1  0
 37 38  1  0
 36  3  1  0
 34  8  1  0
 28 11  1  0
 34 30  1  0
 27 19  1  0
M  END
>  <Compound_ID>  (111) 
CHEMBL2177726

>  <Molecule Name>  (111) 
nan

>  <Molecular Weight>  (111) 
510.51

>  <AlogP>  (111) 
4.50

>  <Smiles>  (111) 
COc1ccc(Nc2cc(-c3cccc(C(=O)Nc4ccc(C(=O)O)cc4)c3)nn3ccnc23)nc1OC

>  <Standard Type>  (111) 
IC50

>  <Standard Relation>  (111) 
'='

>  <Standard Units>  (111) 
nM

>  <Standard Value>  (111) 
1.0

>  <Assay ChEMBL ID>  (111) 
CHEMBL3887423

>  <Assay Description>  (111) 
Inhibition Assay: Assay plates: 96-well MultiScreen 0.65 um filter plates (Millipore Cat. No.: MADVNOB10)Streptavidin coated beads: Streptavidin Sepharose, suspension 5.0 mL, in 50 mM EDTA/PBS diluted (1:100), (Amersham, Cat. No.: 17-5113-01)Compounds: 10 mM in 100% dimethylsulfoxide (DMSO), final conc.: compound 0.003-100 uM in 10% DMSOEnzyme: SYK RPA purified, truncated construct of Spleen Tyrosine Kinase aa 360-635, stock solution 1 mg/mL, MW: 31.2 KDa, final conc.:0.0005 uM. Peptide 1: biotinylated peptide is derived from a naturally occurring phosphor-acceptor consensus sequence (Biotin-EPEGDYEEVLE), special order from QCB, stock solution 20 mM, final conc.: 5.0 uM.ATP: Adenosine-5'-triphosphate 20 mM, (ROCHE Cat. No.: 93202720), final concentration: 20 uM Buffer: HEPES: 2-Hydroxyethyl piperazine-2-ethanesulfonic acid (Sigma, Cat. No.: H-3375)final concentration: 50 mM HEPES pH7.5BSA: Bovine Serum Albumin Fraction V, fatty acid free (Roche Diagnostics GmbH, Cat. No. 9100221).

>  <BAO Format ID>  (111) 
BAO_0000357

>  <BAO Label>  (111) 
single protein format

>  <Assay Organism>  (111) 
None

>  <Target ChEMBL ID>  (111) 
CHEMBL2599

>  <Target Name>  (111) 
Tyrosine-protein kinase SYK

>  <Target Organism>  (111) 
Homo sapiens

>  <Target Type>  (111) 
SINGLE PROTEIN

>  <Document ChEMBL ID>  (111) 
CHEMBL3886315

>  <Source Description>  (111) 
BindingDB Database

>  <Document Journal>  (111) 
nan

>  <Document Year>  (111) 
2015.0

>  <Active>  (111) 
1.0

>  <bits>  (111) 
<rdkit.DataStructs.cDataStructs.ExplicitBitVect object at 0x00000193F34052A0>

>  <Group>  (111) 
G2

$$$$

     RDKit          2D

 28 32  0  0  0  0  0  0  0  0999 V2000
    3.0000   -7.7942    0.0000 F   0  0  0  0  0  0  0  0  0  0  0  0
    1.5000   -7.7942    0.0000 C   0  0  0  0  0  0  0  0  0  0  0  0
    0.7500   -9.0933    0.0000 C   0  0  0  0  0  0  0  0  0  0  0  0
   -0.7500   -9.0933    0.0000 N   0  0  0  0  0  0  0  0  0  0  0  0
   -1.5000   -7.7942    0.0000 C   0  0  0  0  0  0  0  0  0  0  0  0
   -3.0000   -7.7942    0.0000 N   0  0  0  0  0  0  0  0  0  0  0  0
   -3.7500   -6.4952    0.0000 C   0  0  0  0  0  0  0  0  0  0  0  0
   -3.0000   -5.1962    0.0000 C   0  0  0  0  0  0  0  0  0  0  0  0
   -3.7500   -3.8971    0.0000 C   0  0  0  0  0  0  0  0  0  0  0  0
   -5.2500   -3.8971    0.0000 C   0  0  0  0  0  0  0  0  0  0  0  0
   -6.2537   -2.7824    0.0000 C   0  0  0  0  0  0  0  0  0  0  0  0
   -7.6240   -3.3925    0.0000 N   0  0  0  0  0  0  0  0  0  0  0  0
   -7.4672   -4.8843    0.0000 N   0  0  0  0  0  0  0  0  0  0  0  0
   -6.0000   -5.1962    0.0000 C   0  0  0  0  0  0  0  0  0  0  0  0
   -5.2500   -6.4952    0.0000 C   0  0  0  0  0  0  0  0  0  0  0  0
   -0.7500   -6.4952    0.0000 N   0  0  0  0  0  0  0  0  0  0  0  0
    0.7500   -6.4952    0.0000 C   0  0  0  0  0  0  0  0  0  0  0  0
    1.5000   -5.1962    0.0000 N   0  0  0  0  0  0  0  0  0  0  0  0
    0.7500   -3.8971    0.0000 C   0  0  0  0  0  0  0  0  0  0  0  0
   -0.7500   -3.8971    0.0000 C   0  0  0  0  0  0  0  0  0  0  0  0
   -1.5000   -2.5981    0.0000 C   0  0  0  0  0  0  0  0  0  0  0  0
   -0.7500   -1.2990    0.0000 C   0  0  0  0  0  0  0  0  0  0  0  0
    0.7500   -1.2990    0.0000 C   0  0  0  0  0  0  0  0  0  0  0  0
    1.5000   -2.5981    0.0000 C   0  0  0  0  0  0  0  0  0  0  0  0
    1.5000    0.0000    0.0000 O   0  0  0  0  0  0  0  0  0  0  0  0
    0.7500    1.2990    0.0000 C   0  0  0  0  0  0  0  0  0  0  0  0
   -0.7500    1.2990    0.0000 C   0  0  0  0  0  0  0  0  0  0  0  0
   -1.5000    0.0000    0.0000 O   0  0  0  0  0  0  0  0  0  0  0  0
  1  2  1  0
  2  3  2  0
  3  4  1  0
  4  5  2  0
  5  6  1  0
  6  7  1  0
  7  8  2  0
  8  9  1  0
  9 10  2  0
 10 11  1  0
 11 12  2  0
 12 13  1  0
 13 14  1  0
 14 15  2  0
  5 16  1  0
 16 17  2  0
 17 18  1  0
 18 19  1  0
 19 20  2  0
 20 21  1  0
 21 22  2  0
 22 23  1  0
 23 24  2  0
 23 25  1  0
 25 26  1  0
 26 27  1  0
 27 28  1  0
 17  2  1  0
 24 19  1  0
 15  7  1  0
 28 22  1  0
 14 10  1  0
M  END
>  <Compound_ID>  (112) 
CHEMBL3896846

>  <Molecule Name>  (112) 
nan

>  <Molecular Weight>  (112) 
378.37

>  <AlogP>  (112) 
3.75

>  <Smiles>  (112) 
Fc1cnc(Nc2ccc3cn[nH]c3c2)nc1Nc1ccc2c(c1)OCCO2

>  <Standard Type>  (112) 
IC50

>  <Standard Relation>  (112) 
'='

>  <Standard Units>  (112) 
nM

>  <Standard Value>  (112) 
46.5

>  <Assay ChEMBL ID>  (112) 
CHEMBL3889292

>  <Assay Description>  (112) 
Biochemical Assay: Several 2,4-pyrimidinediamine compounds were tested for the ability to inhibit Syk kinase catalyzed phosphorylation of a peptide substrate in a biochemical fluorescenced polarization assay with isolated Syk kinase. In this experiment, Compounds were diluted to 1% DMSO in kinase buffer (20 mM HEPES, pH 7.4, 5 mM MgCl2, 2 mM MnCl2, 1 mM DTT, 0.1 mg/mL acetylated Bovine Gamma Globulin). Compound in 1% DMSO (0.2% DMSO final) was mixed with ATP/substrate solution at room temperature. Syk kinase (Upstate, Lake Placid N.Y.) was added to a final reaction volume of 20 uL, and the reaction was incubated for 30 minutes at room temperature. Final enzyme reaction conditions were 20 mM HEPES, pH 7.4, 5 mM MgCl2, 2 mM MnCl2, 1 mM DTT, 0.1 mg/mL acetylated Bovine Gamma Globulin, 0.125 ng Syk, 4 uM ATP, 2.5 uM peptide substrate (biotin-EQEDEPEGDYEEVLE-CONH2, SynPep Corporation). EDTA (10 mM final)/anti-phosphotyrosine antibody (1x final)/fluorescent phosphopeptide tracer (0.5x final) was added in FP Dilution Buffer to stop the reaction for a total volume of 40 uL according to manufacturer's instructions (PanVera Corporation) The plate was incubated for 30 minutes in the dark at room temperature. Plates were read on a Polarion fluorescence polarization plate reader (Tecan). Data were converted to amount of phosphopeptide present using a calibration curve generated by competition with the phosphopeptide competitor provided in the Tyrosine Kinase Assay Kit, Green (PanVera Corporation).

>  <BAO Format ID>  (112) 
BAO_0000357

>  <BAO Label>  (112) 
single protein format

>  <Assay Organism>  (112) 
Homo sapiens

>  <Target ChEMBL ID>  (112) 
CHEMBL2599

>  <Target Name>  (112) 
Tyrosine-protein kinase SYK

>  <Target Organism>  (112) 
Homo sapiens

>  <Target Type>  (112) 
SINGLE PROTEIN

>  <Document ChEMBL ID>  (112) 
CHEMBL3887020

>  <Source Description>  (112) 
BindingDB Database

>  <Document Journal>  (112) 
nan

>  <Document Year>  (112) 
2016.0

>  <Active>  (112) 
1.0

>  <bits>  (112) 
<rdkit.DataStructs.cDataStructs.ExplicitBitVect object at 0x00000193F3407D80>

>  <Group>  (112) 
G2

$$$$

     RDKit          2D

 35 39  0  0  0  0  0  0  0  0999 V2000
   -2.9499    4.2246    0.0000 C   0  0  0  0  0  0  0  0  0  0  0  0
   -1.8351    3.2209    0.0000 C   0  0  0  0  0  0  0  0  0  0  0  0
   -0.4086    3.6844    0.0000 C   0  0  0  0  0  0  0  0  0  0  0  0
    0.7062    2.6807    0.0000 C   0  0  0  0  0  0  0  0  0  0  0  0
    2.1328    3.1443    0.0000 N   0  0  0  0  0  0  0  0  0  0  0  0
    2.4446    4.6115    0.0000 C   0  0  0  0  0  0  0  0  0  0  0  0
    1.3299    5.6152    0.0000 N   0  0  0  0  0  0  0  0  0  0  0  0
    1.6418    7.0824    0.0000 C   0  0  0  0  0  0  0  0  0  0  0  0
    0.5271    8.0861    0.0000 N   0  0  0  0  0  0  0  0  0  0  0  0
   -0.8995    7.6226    0.0000 C   0  0  0  0  0  0  0  0  0  0  0  0
   -1.2114    6.1554    0.0000 C   0  0  0  0  0  0  0  0  0  0  0  0
   -2.6380    5.6918    0.0000 C   0  0  0  0  0  0  0  0  0  0  0  0
   -3.7527    6.6955    0.0000 C   0  0  0  0  0  0  0  0  0  0  0  0
   -3.4408    8.1628    0.0000 C   0  0  0  0  0  0  0  0  0  0  0  0
   -2.0143    8.6263    0.0000 C   0  0  0  0  0  0  0  0  0  0  0  0
   -1.7024   10.0935    0.0000 N   0  0  0  0  0  0  0  0  0  0  0  0
    3.0684    7.5459    0.0000 N   0  0  0  0  0  0  0  0  0  0  0  0
    4.1831    6.5422    0.0000 N   0  0  0  0  0  0  0  0  0  0  0  0
    3.8712    5.0750    0.0000 C   0  0  0  0  0  0  0  0  0  0  0  0
    4.9859    4.0713    0.0000 C   0  0  0  0  0  0  0  0  0  0  0  0
    6.4125    4.5348    0.0000 N   0  0  0  0  0  0  0  0  0  0  0  0
    4.6741    2.6041    0.0000 O   0  0  0  0  0  0  0  0  0  0  0  0
    0.3943    1.2135    0.0000 C   0  0  0  0  0  0  0  0  0  0  0  0
    1.2760    0.0000    0.0000 C   0  0  0  0  0  0  0  0  0  0  0  0
    0.3943   -1.2135    0.0000 C   0  0  0  0  0  0  0  0  0  0  0  0
   -1.0323   -0.7500    0.0000 N   0  0  0  0  0  0  0  0  0  0  0  0
   -2.2458   -1.6317    0.0000 C   0  0  0  0  0  0  0  0  0  0  0  0
   -3.6161   -1.0216    0.0000 C   0  0  0  0  0  0  0  0  0  0  0  0
   -4.8297   -1.9033    0.0000 C   0  0  0  0  0  0  0  0  0  0  0  0
   -4.6729   -3.3950    0.0000 C   0  0  0  0  0  0  0  0  0  0  0  0
   -5.8864   -4.2767    0.0000 O   0  0  0  0  0  0  0  0  0  0  0  0
   -3.3025   -4.0051    0.0000 C   0  0  0  0  0  0  0  0  0  0  0  0
   -2.0890   -3.1235    0.0000 C   0  0  0  0  0  0  0  0  0  0  0  0
   -1.0323    0.7500    0.0000 C   0  0  0  0  0  0  0  0  0  0  0  0
   -2.1470    1.7537    0.0000 C   0  0  0  0  0  0  0  0  0  0  0  0
  1  2  1  0
  2  3  2  0
  3  4  1  0
  4  5  1  0
  5  6  1  0
  6  7  2  0
  7  8  1  0
  8  9  1  0
 10  9  1  6
 10 11  1  0
 11 12  1  0
 12 13  1  0
 13 14  1  0
 14 15  1  0
 15 16  1  6
  8 17  2  0
 17 18  1  0
 18 19  2  0
 19 20  1  0
 20 21  1  0
 20 22  2  0
  4 23  2  0
 23 24  1  0
 24 25  2  0
 25 26  1  0
 27 26  1  6
 27 28  1  0
 28 29  1  0
 29 30  1  0
 30 31  1  1
 30 32  1  0
 32 33  1  0
 26 34  1  0
 34 35  2  0
 35  2  1  0
 19  6  1  0
 34 23  1  0
 15 10  1  0
 33 27  1  0
M  END
>  <Compound_ID>  (113) 
CHEMBL3965597

>  <Molecule Name>  (113) 
nan

>  <Molecular Weight>  (113) 
478.6

>  <AlogP>  (113) 
3.14

>  <Smiles>  (113) 
Cc1cc(Nc2nc(N[C@@H]3CCCC[C@@H]3N)nnc2C(N)=O)c2ccn([C@H]3CC[C@H](O)CC3)c2c1

>  <Standard Type>  (113) 
IC50

>  <Standard Relation>  (113) 
'='

>  <Standard Units>  (113) 
nM

>  <Standard Value>  (113) 
0.53

>  <Assay ChEMBL ID>  (113) 
CHEMBL3887308

>  <Assay Description>  (113) 
Syk Kinase Inhibition Assay: The in vitro inhibitory activity of the compound of the present invention against Syk kinase activity was assayed under the following conditions: the purified human Syk protein used in the test were purchased from Carna Biosciences, Inc. For the inhibitory activity assay on the compound, the compound of the present invention was first serially diluted with dimethyl sulfoxide (DMSO). Next, the purified human Syk protein FL-Peptide 22 (final concentration: 1 uM) (Caliper Life Sciences, Inc.), magnesium chloride (final concentration: 5 mM), ATP (final concentration: 30 uM), and each DMSO solution of the compound of the present invention (final concentration of DMSO: 5%) were added into a buffer solution for reaction (20 mM tris-HCl pH 7.5, 20 mM NaCl, 2.5 mM DTT, 0.02% Tween-20, 1% glycerol, 0.01 mM Pefabloc), and the mixture was then incubated at 25° C. for 30 minutes to perform kinase reaction. The kinase reaction was stopped by the addition thereto of EDTA.

>  <BAO Format ID>  (113) 
BAO_0000357

>  <BAO Label>  (113) 
single protein format

>  <Assay Organism>  (113) 
Homo sapiens

>  <Target ChEMBL ID>  (113) 
CHEMBL2599

>  <Target Name>  (113) 
Tyrosine-protein kinase SYK

>  <Target Organism>  (113) 
Homo sapiens

>  <Target Type>  (113) 
SINGLE PROTEIN

>  <Document ChEMBL ID>  (113) 
CHEMBL3886160

>  <Source Description>  (113) 
BindingDB Database

>  <Document Journal>  (113) 
nan

>  <Document Year>  (113) 
2015.0

>  <Active>  (113) 
1.0

>  <bits>  (113) 
<rdkit.DataStructs.cDataStructs.ExplicitBitVect object at 0x00000193F34059A0>

>  <Group>  (113) 
G2

$$$$

     RDKit          2D

 29 33  0  0  0  0  0  0  0  0999 V2000
   -5.2500   -3.8971    0.0000 C   0  0  0  0  0  0  0  0  0  0  0  0
   -3.7500   -3.8971    0.0000 C   0  0  0  0  0  0  0  0  0  0  0  0
   -3.0000   -2.5981    0.0000 O   0  0  0  0  0  0  0  0  0  0  0  0
   -1.5000   -2.5981    0.0000 C   0  0  0  0  0  0  0  0  0  0  0  0
   -0.7500   -3.8971    0.0000 C   0  0  0  0  0  0  0  0  0  0  0  0
    0.7500   -3.8971    0.0000 C   0  0  0  0  0  0  0  0  0  0  0  0
    1.5000   -5.1962    0.0000 C   0  0  0  0  0  0  0  0  0  0  0  0
    3.0000   -5.1962    0.0000 C   0  0  0  0  0  0  0  0  0  0  0  0
    3.7500   -6.4952    0.0000 C   0  0  0  0  0  0  0  0  0  0  0  0
    3.0000   -7.7942    0.0000 C   0  0  0  0  0  0  0  0  0  0  0  0
    3.7500   -9.0933    0.0000 N   0  0  0  0  0  0  0  0  0  0  0  0
    3.0000  -10.3923    0.0000 C   0  0  0  0  0  0  0  0  0  0  0  0
    1.5000  -10.3923    0.0000 C   0  0  0  0  0  0  0  0  0  0  0  0
    0.7500   -9.0933    0.0000 C   0  0  0  0  0  0  0  0  0  0  0  0
    1.5000   -7.7942    0.0000 C   0  0  0  0  0  0  0  0  0  0  0  0
    0.7500   -6.4952    0.0000 C   0  0  0  0  0  0  0  0  0  0  0  0
    1.5000   -2.5981    0.0000 C   0  0  0  0  0  0  0  0  0  0  0  0
    0.7500   -1.2990    0.0000 C   0  0  0  0  0  0  0  0  0  0  0  0
    1.5000    0.0000    0.0000 N   0  0  0  0  0  0  0  0  0  0  0  0
    0.7500    1.2990    0.0000 C   0  0  0  0  0  0  0  0  0  0  0  0
   -0.7500    1.2990    0.0000 C   0  0  0  0  0  0  0  0  0  0  0  0
   -1.5000    0.0000    0.0000 C   0  0  0  0  0  0  0  0  0  0  0  0
   -0.7500   -1.2990    0.0000 C   0  0  0  0  0  0  0  0  0  0  0  0
   -3.0000   -5.1962    0.0000 C   0  0  0  0  0  0  0  0  0  0  0  0
   -1.5082   -5.3529    0.0000 C   0  0  0  0  0  0  0  0  0  0  0  0
   -1.1963   -6.8202    0.0000 N   0  0  0  0  0  0  0  0  0  0  0  0
   -2.4954   -7.5702    0.0000 C   0  0  0  0  0  0  0  0  0  0  0  0
   -2.6522   -9.0619    0.0000 O   0  0  0  0  0  0  0  0  0  0  0  0
   -3.6101   -6.5665    0.0000 C   0  0  0  0  0  0  0  0  0  0  0  0
  2  1  1  1
  2  3  1  0
  3  4  1  0
  4  5  2  0
  5  6  1  0
  6  7  1  0
  7  8  2  0
  8  9  1  0
  9 10  2  0
 10 11  1  0
 11 12  2  0
 12 13  1  0
 13 14  2  0
 14 15  1  0
 15 16  2  0
  6 17  2  0
 17 18  1  0
 18 19  2  0
 19 20  1  0
 20 21  2  0
 21 22  1  0
 22 23  2  0
  2 24  1  0
 24 25  1  1
 25 26  1  0
 26 27  1  0
 27 28  2  0
 27 29  1  0
 23  4  1  0
 29 24  1  0
 16  7  1  0
 23 18  1  0
 15 10  1  0
M  END
>  <Compound_ID>  (114) 
CHEMBL3653758

>  <Molecule Name>  (114) 
nan

>  <Molecular Weight>  (114) 
383.45

>  <AlogP>  (114) 
4.35

>  <Smiles>  (114) 
C[C@@H](Oc1cc(-c2ccc3ncccc3c2)cc2ncccc12)[C@H]1CNC(=O)C1

>  <Standard Type>  (114) 
IC50

>  <Standard Relation>  (114) 
'='

>  <Standard Units>  (114) 
nM

>  <Standard Value>  (114) 
0.3

>  <Assay ChEMBL ID>  (114) 
CHEMBL3706124

>  <Assay Description>  (114) 
Kinase Assay: Recombinant human Syk (amino acids 342-635) was expressed as a fusion protein with an N-terminal GST tag, affinity-purified and deep-frozen at a concentration of approx. 50-100 uM in test buffer (25 mM HEPES pH7.5; 25 mM MgCl2; 5 mM MnCl2; 50 mM KCl; either 0.2% BSA or 0.2% HSA; 0.01% CHAPS; 100 uM Na3VO4; 0.5 mM DTT) and 10% glycerol at -80 C. until use.The catalytic activity of the GST-Syk kinase fusion protein was determined using the Kinase Glo Luminescence Kinase test (Promega; V6712). In this homogeneous test the amount of ATP remaining after the kinase reaction is quantified by a luciferin-luciferase reaction using luminescence. The luminescence signal obtained correlates with the amount of ATP still present and thus correlates inversely with the activity of the protein kinase.MethodThe test compounds were dissolved in 100% DMSO at a concentration of 10 mM and diluted in DMSO to a concentration of 1 mM.

>  <BAO Format ID>  (114) 
BAO_0000357

>  <BAO Label>  (114) 
single protein format

>  <Assay Organism>  (114) 
Homo sapiens

>  <Target ChEMBL ID>  (114) 
CHEMBL2599

>  <Target Name>  (114) 
Tyrosine-protein kinase SYK

>  <Target Organism>  (114) 
Homo sapiens

>  <Target Type>  (114) 
SINGLE PROTEIN

>  <Document ChEMBL ID>  (114) 
CHEMBL3638790

>  <Source Description>  (114) 
BindingDB Database

>  <Document Journal>  (114) 
nan

>  <Document Year>  (114) 
2014.0

>  <Active>  (114) 
1.0

>  <bits>  (114) 
<rdkit.DataStructs.cDataStructs.ExplicitBitVect object at 0x00000193F3404190>

>  <Group>  (114) 
G2

$$$$

     RDKit          2D

 31 34  0  0  0  0  0  0  0  0999 V2000
  -12.0000   -2.5981    0.0000 C   0  0  0  0  0  0  0  0  0  0  0  0
  -10.5000   -2.5981    0.0000 N   0  0  0  0  0  0  0  0  0  0  0  0
   -9.7500   -3.8971    0.0000 C   0  0  0  0  0  0  0  0  0  0  0  0
  -10.5000   -5.1962    0.0000 O   0  0  0  0  0  0  0  0  0  0  0  0
   -8.2500   -3.8971    0.0000 C   0  0  0  0  0  0  0  0  0  0  0  0
   -7.5000   -5.1962    0.0000 O   0  0  0  0  0  0  0  0  0  0  0  0
   -6.0000   -5.1962    0.0000 C   0  0  0  0  0  0  0  0  0  0  0  0
   -5.2500   -3.8971    0.0000 C   0  0  0  0  0  0  0  0  0  0  0  0
   -3.7500   -3.8971    0.0000 C   0  0  0  0  0  0  0  0  0  0  0  0
   -3.0000   -5.1962    0.0000 C   0  0  0  0  0  0  0  0  0  0  0  0
   -3.7500   -6.4952    0.0000 C   0  0  0  0  0  0  0  0  0  0  0  0
   -3.0000   -7.7942    0.0000 N   0  0  0  0  0  0  0  0  0  0  0  0
   -1.5000   -7.7942    0.0000 C   0  0  0  0  0  0  0  0  0  0  0  0
   -0.7500   -9.0933    0.0000 N   0  0  0  0  0  0  0  0  0  0  0  0
    0.7500   -9.0933    0.0000 C   0  0  0  0  0  0  0  0  0  0  0  0
    1.5000   -7.7942    0.0000 C   0  0  0  0  0  0  0  0  0  0  0  0
    3.0000   -7.7942    0.0000 F   0  0  0  0  0  0  0  0  0  0  0  0
    0.7500   -6.4952    0.0000 C   0  0  0  0  0  0  0  0  0  0  0  0
    1.5000   -5.1962    0.0000 N   0  0  0  0  0  0  0  0  0  0  0  0
    0.7500   -3.8971    0.0000 C   0  0  0  0  0  0  0  0  0  0  0  0
   -0.7500   -3.8971    0.0000 C   0  0  0  0  0  0  0  0  0  0  0  0
   -1.5000   -2.5981    0.0000 C   0  0  0  0  0  0  0  0  0  0  0  0
   -0.7500   -1.2990    0.0000 C   0  0  0  0  0  0  0  0  0  0  0  0
    0.7500   -1.2990    0.0000 C   0  0  0  0  0  0  0  0  0  0  0  0
    1.5000   -2.5981    0.0000 C   0  0  0  0  0  0  0  0  0  0  0  0
    1.5000    0.0000    0.0000 O   0  0  0  0  0  0  0  0  0  0  0  0
    0.7500    1.2990    0.0000 C   0  0  0  0  0  0  0  0  0  0  0  0
   -0.7500    1.2990    0.0000 C   0  0  0  0  0  0  0  0  0  0  0  0
   -1.5000    0.0000    0.0000 O   0  0  0  0  0  0  0  0  0  0  0  0
   -0.7500   -6.4952    0.0000 N   0  0  0  0  0  0  0  0  0  0  0  0
   -5.2500   -6.4952    0.0000 C   0  0  0  0  0  0  0  0  0  0  0  0
  1  2  1  0
  2  3  1  0
  3  4  2  0
  3  5  1  0
  5  6  1  0
  6  7  1  0
  7  8  2  0
  8  9  1  0
  9 10  2  0
 10 11  1  0
 11 12  1  0
 12 13  1  0
 13 14  2  0
 14 15  1  0
 15 16  2  0
 16 17  1  0
 16 18  1  0
 18 19  1  0
 19 20  1  0
 20 21  2  0
 21 22  1  0
 22 23  2  0
 23 24  1  0
 24 25  2  0
 24 26  1  0
 26 27  1  0
 27 28  1  0
 28 29  1  0
 18 30  2  0
 11 31  2  0
 31  7  1  0
 30 13  1  0
 25 20  1  0
 29 23  1  0
M  END
>  <Compound_ID>  (115) 
CHEMBL3923327

>  <Molecule Name>  (115) 
nan

>  <Molecular Weight>  (115) 
425.42

>  <AlogP>  (115) 
3.00

>  <Smiles>  (115) 
CNC(=O)COc1cccc(Nc2ncc(F)c(Nc3ccc4c(c3)OCCO4)n2)c1

>  <Standard Type>  (115) 
IC50

>  <Standard Relation>  (115) 
'='

>  <Standard Units>  (115) 
nM

>  <Standard Value>  (115) 
61.5

>  <Assay ChEMBL ID>  (115) 
CHEMBL3889292

>  <Assay Description>  (115) 
Biochemical Assay: Several 2,4-pyrimidinediamine compounds were tested for the ability to inhibit Syk kinase catalyzed phosphorylation of a peptide substrate in a biochemical fluorescenced polarization assay with isolated Syk kinase. In this experiment, Compounds were diluted to 1% DMSO in kinase buffer (20 mM HEPES, pH 7.4, 5 mM MgCl2, 2 mM MnCl2, 1 mM DTT, 0.1 mg/mL acetylated Bovine Gamma Globulin). Compound in 1% DMSO (0.2% DMSO final) was mixed with ATP/substrate solution at room temperature. Syk kinase (Upstate, Lake Placid N.Y.) was added to a final reaction volume of 20 uL, and the reaction was incubated for 30 minutes at room temperature. Final enzyme reaction conditions were 20 mM HEPES, pH 7.4, 5 mM MgCl2, 2 mM MnCl2, 1 mM DTT, 0.1 mg/mL acetylated Bovine Gamma Globulin, 0.125 ng Syk, 4 uM ATP, 2.5 uM peptide substrate (biotin-EQEDEPEGDYEEVLE-CONH2, SynPep Corporation). EDTA (10 mM final)/anti-phosphotyrosine antibody (1x final)/fluorescent phosphopeptide tracer (0.5x final) was added in FP Dilution Buffer to stop the reaction for a total volume of 40 uL according to manufacturer's instructions (PanVera Corporation) The plate was incubated for 30 minutes in the dark at room temperature. Plates were read on a Polarion fluorescence polarization plate reader (Tecan). Data were converted to amount of phosphopeptide present using a calibration curve generated by competition with the phosphopeptide competitor provided in the Tyrosine Kinase Assay Kit, Green (PanVera Corporation).

>  <BAO Format ID>  (115) 
BAO_0000357

>  <BAO Label>  (115) 
single protein format

>  <Assay Organism>  (115) 
Homo sapiens

>  <Target ChEMBL ID>  (115) 
CHEMBL2599

>  <Target Name>  (115) 
Tyrosine-protein kinase SYK

>  <Target Organism>  (115) 
Homo sapiens

>  <Target Type>  (115) 
SINGLE PROTEIN

>  <Document ChEMBL ID>  (115) 
CHEMBL3887020

>  <Source Description>  (115) 
BindingDB Database

>  <Document Journal>  (115) 
nan

>  <Document Year>  (115) 
2016.0

>  <Active>  (115) 
1.0

>  <bits>  (115) 
<rdkit.DataStructs.cDataStructs.ExplicitBitVect object at 0x00000193F3405E00>

>  <Group>  (115) 
G2

$$$$

     RDKit          2D

 31 34  0  0  0  0  0  0  0  0999 V2000
    3.0000    0.0000    0.0000 C   0  0  0  0  0  0  0  0  0  0  0  0
    1.5000    0.0000    0.0000 C   0  0  0  0  0  0  0  0  0  0  0  0
    0.7500   -1.2990    0.0000 C   0  0  0  0  0  0  0  0  0  0  0  0
   -0.7500   -1.2990    0.0000 C   0  0  0  0  0  0  0  0  0  0  0  0
   -1.5000   -2.5981    0.0000 N   0  0  0  0  0  0  0  0  0  0  0  0
   -3.0000   -2.5981    0.0000 C   0  0  0  0  0  0  0  0  0  0  0  0
   -3.7500   -1.2990    0.0000 C   0  0  0  0  0  0  0  0  0  0  0  0
   -5.2500   -1.2990    0.0000 C   0  0  0  0  0  0  0  0  0  0  0  0
   -6.0000    0.0000    0.0000 C   0  0  0  0  0  0  0  0  0  0  0  0
   -4.7010    0.7500    0.0000 C   0  0  0  0  0  0  0  0  0  0  0  0
   -7.2990   -0.7500    0.0000 C   0  0  0  0  0  0  0  0  0  0  0  0
   -6.7500    1.2990    0.0000 C   0  0  0  0  0  0  0  0  0  0  0  0
   -6.0000   -2.5981    0.0000 C   0  0  0  0  0  0  0  0  0  0  0  0
   -5.2500   -3.8971    0.0000 C   0  0  0  0  0  0  0  0  0  0  0  0
   -3.7500   -3.8971    0.0000 N   0  0  0  0  0  0  0  0  0  0  0  0
   -1.5000    0.0000    0.0000 N   0  0  0  0  0  0  0  0  0  0  0  0
   -0.7500    1.2990    0.0000 C   0  0  0  0  0  0  0  0  0  0  0  0
   -1.5000    2.5981    0.0000 C   0  0  0  0  0  0  0  0  0  0  0  0
   -0.7500    3.8971    0.0000 C   0  0  0  0  0  0  0  0  0  0  0  0
   -1.5000    5.1962    0.0000 C   0  0  0  0  0  0  0  0  0  0  0  0
   -3.0000    5.1962    0.0000 C   0  0  0  0  0  0  0  0  0  0  0  0
   -3.7500    6.4952    0.0000 N   0  0  0  0  0  0  0  0  0  0  0  0
   -3.0000    7.7942    0.0000 C   0  0  0  0  0  0  0  0  0  0  0  0
   -3.6101    9.1645    0.0000 C   0  0  0  0  0  0  0  0  0  0  0  0
   -2.4954   10.1682    0.0000 C   0  0  0  0  0  0  0  0  0  0  0  0
   -1.1963    9.4182    0.0000 N   0  0  0  0  0  0  0  0  0  0  0  0
   -1.5082    7.9510    0.0000 C   0  0  0  0  0  0  0  0  0  0  0  0
   -0.5045    6.8363    0.0000 O   0  0  0  0  0  0  0  0  0  0  0  0
   -3.7500    3.8971    0.0000 N   0  0  0  0  0  0  0  0  0  0  0  0
   -3.0000    2.5981    0.0000 C   0  0  0  0  0  0  0  0  0  0  0  0
    0.7500    1.2990    0.0000 C   0  0  0  0  0  0  0  0  0  0  0  0
  1  2  1  0
  2  3  2  0
  3  4  1  0
  4  5  1  0
  5  6  1  0
  6  7  2  0
  7  8  1  0
  8  9  1  0
  9 10  1  0
  9 11  1  0
  9 12  1  0
  8 13  2  0
 13 14  1  0
 14 15  2  0
  4 16  2  0
 16 17  1  0
 17 18  1  0
 18 19  2  0
 19 20  1  0
 20 21  2  0
 21 22  1  0
 22 23  1  0
 23 24  1  0
 24 25  1  0
 25 26  1  0
 26 27  1  0
 27 28  2  0
 21 29  1  0
 29 30  2  0
 17 31  2  0
 31  2  1  0
 15  6  1  0
 30 18  1  0
 27 23  1  0
M  END
>  <Compound_ID>  (116) 
CHEMBL3961917

>  <Molecule Name>  (116) 
nan

>  <Molecular Weight>  (116) 
416.53

>  <AlogP>  (116) 
4.19

>  <Smiles>  (116) 
Cc1cc(Nc2cc(C(C)(C)C)ccn2)nc(-c2ccc(NC3CCNC3=O)nc2)c1

>  <Standard Type>  (116) 
IC50

>  <Standard Relation>  (116) 
'='

>  <Standard Units>  (116) 
nM

>  <Standard Value>  (116) 
27.0

>  <Assay ChEMBL ID>  (116) 
CHEMBL3887083

>  <Assay Description>  (116) 
Homogeneous Time-Resolved Fluorescence (HTRF) Assay: A recombinant GST-hSyk fusion protein was used to measure potency of compounds to inhibit human Syk activity. The recombinant human GST-Syk (Carna Biosciences #08-176) (5 pM final concentration) was incubated with various concentrations of the inhibitor diluted in DMSO (0.1% final concentration) for 10 minutes at room temperature in 15 mM Tris-HCl (pH 7.5), 0.01% tween 20, 2 mM DTT in 384 well plate format. To initiate the reaction the biotinylated substrate peptide (250 nM final concentration) that contains the phosphorylation site for Syk was added with magnesium (5 mM final concentration) and ATP (25 uM final concentration). Final volume of the reaction was 10 uL. Phosphorylation of the peptide was allowed to proceed for 45x at room temperature. To quench the reaction and detect the phosphorylated product, 2 nM of a Europium-anti-phosphotyrosine antibody (Perkin Elmer #AD0161) and 70 nM SA-APC (Perkin-Elmer #CR130-100) were added together in 15 mM Tris pH 7.5.

>  <BAO Format ID>  (116) 
BAO_0000357

>  <BAO Label>  (116) 
single protein format

>  <Assay Organism>  (116) 
Homo sapiens

>  <Target ChEMBL ID>  (116) 
CHEMBL2599

>  <Target Name>  (116) 
Tyrosine-protein kinase SYK

>  <Target Organism>  (116) 
Homo sapiens

>  <Target Type>  (116) 
SINGLE PROTEIN

>  <Document ChEMBL ID>  (116) 
CHEMBL3886158

>  <Source Description>  (116) 
BindingDB Database

>  <Document Journal>  (116) 
nan

>  <Document Year>  (116) 
2015.0

>  <Active>  (116) 
1.0

>  <bits>  (116) 
<rdkit.DataStructs.cDataStructs.ExplicitBitVect object at 0x00000193F3407A00>

>  <Group>  (116) 
G2

$$$$

     RDKit          2D

 37 40  0  0  0  0  0  0  0  0999 V2000
    3.7500   -3.8971    0.0000 C   0  0  0  0  0  0  0  0  0  0  0  0
    2.2500   -3.8971    0.0000 C   0  0  0  0  0  0  0  0  0  0  0  0
    1.5000   -5.1962    0.0000 O   0  0  0  0  0  0  0  0  0  0  0  0
    1.5000   -2.5981    0.0000 C   0  0  0  0  0  0  0  0  0  0  0  0
    2.7990   -1.8481    0.0000 C   0  0  0  0  0  0  0  0  0  0  0  0
    0.7500   -1.2990    0.0000 C   0  0  0  0  0  0  0  0  0  0  0  0
    1.5000    0.0000    0.0000 C   0  0  0  0  0  0  0  0  0  0  0  0
    0.7500    1.2990    0.0000 C   0  0  0  0  0  0  0  0  0  0  0  0
   -0.7500    1.2990    0.0000 C   0  0  0  0  0  0  0  0  0  0  0  0
   -1.5000    2.5981    0.0000 C   0  0  0  0  0  0  0  0  0  0  0  0
   -0.7500    3.8971    0.0000 C   0  0  0  0  0  0  0  0  0  0  0  0
   -1.5000    5.1962    0.0000 C   0  0  0  0  0  0  0  0  0  0  0  0
   -0.7500    6.4952    0.0000 C   0  0  0  0  0  0  0  0  0  0  0  0
   -3.0000    5.1962    0.0000 C   0  0  0  0  0  0  0  0  0  0  0  0
   -3.7500    3.8971    0.0000 C   0  0  0  0  0  0  0  0  0  0  0  0
   -5.2500    3.8971    0.0000 N   0  0  0  0  0  0  0  0  0  0  0  0
   -6.0000    5.1962    0.0000 C   0  0  0  0  0  0  0  0  0  0  0  0
   -5.2500    6.4952    0.0000 C   0  0  0  0  0  0  0  0  0  0  0  0
   -6.0000    7.7942    0.0000 C   0  0  0  0  0  0  0  0  0  0  0  0
   -5.2500    9.0933    0.0000 C   0  0  0  0  0  0  0  0  0  0  0  0
   -3.7500    9.0933    0.0000 F   0  0  0  0  0  0  0  0  0  0  0  0
   -6.0000   10.3923    0.0000 F   0  0  0  0  0  0  0  0  0  0  0  0
   -7.5000    7.7942    0.0000 C   0  0  0  0  0  0  0  0  0  0  0  0
   -8.2500    6.4952    0.0000 C   0  0  0  0  0  0  0  0  0  0  0  0
   -7.5000    5.1962    0.0000 N   0  0  0  0  0  0  0  0  0  0  0  0
   -3.0000    2.5981    0.0000 N   0  0  0  0  0  0  0  0  0  0  0  0
   -1.5000    0.0000    0.0000 C   0  0  0  0  0  0  0  0  0  0  0  0
   -0.7500   -1.2990    0.0000 N   0  0  0  0  0  0  0  0  0  0  0  0
    0.2010   -3.3481    0.0000 C   0  0  0  0  0  0  0  0  0  0  0  0
   -1.0981   -2.5981    0.0000 C   0  0  0  0  0  0  0  0  0  0  0  0
   -2.3971   -3.3481    0.0000 C   0  0  0  0  0  0  0  0  0  0  0  0
   -2.3971   -4.8481    0.0000 C   0  0  0  0  0  0  0  0  0  0  0  0
   -3.6962   -5.5981    0.0000 C   0  0  0  0  0  0  0  0  0  0  0  0
   -3.6962   -7.0981    0.0000 O   0  0  0  0  0  0  0  0  0  0  0  0
   -4.9952   -4.8481    0.0000 O   0  0  0  0  0  0  0  0  0  0  0  0
   -1.0981   -5.5981    0.0000 C   0  0  0  0  0  0  0  0  0  0  0  0
    0.2010   -4.8481    0.0000 C   0  0  0  0  0  0  0  0  0  0  0  0
  1  2  1  0
  2  3  2  0
  2  4  1  0
  4  5  1  0
  4  6  1  0
  6  7  2  0
  7  8  1  0
  8  9  2  0
  9 10  1  0
 10 11  2  0
 11 12  1  0
 12 13  1  0
 12 14  2  0
 14 15  1  0
 15 16  1  0
 16 17  1  0
 17 18  2  0
 18 19  1  0
 19 20  1  0
 20 21  1  0
 20 22  1  0
 19 23  2  0
 23 24  1  0
 24 25  2  0
 15 26  2  0
  9 27  1  0
 27 28  2  0
  4 29  1  0
 29 30  1  0
 30 31  1  0
 31 32  1  0
 32 33  1  0
 33 34  2  0
 33 35  1  0
 32 36  1  0
 36 37  1  0
 28  6  1  0
 37 29  1  0
 26 10  1  0
 25 17  1  0
M  END
>  <Compound_ID>  (117) 
CHEMBL3902229

>  <Molecule Name>  (117) 
nan

>  <Molecular Weight>  (117) 
508.57

>  <AlogP>  (117) 
6.27

>  <Smiles>  (117) 
CC(=O)C(C)(c1ccc(-c2cc(C)cc(Nc3cc(C(F)F)ccn3)n2)cn1)C1CCC(C(=O)O)CC1

>  <Standard Type>  (117) 
IC50

>  <Standard Relation>  (117) 
'='

>  <Standard Units>  (117) 
nM

>  <Standard Value>  (117) 
1.0

>  <Assay ChEMBL ID>  (117) 
CHEMBL3887083

>  <Assay Description>  (117) 
Homogeneous Time-Resolved Fluorescence (HTRF) Assay: A recombinant GST-hSyk fusion protein was used to measure potency of compounds to inhibit human Syk activity. The recombinant human GST-Syk (Carna Biosciences #08-176) (5 pM final concentration) was incubated with various concentrations of the inhibitor diluted in DMSO (0.1% final concentration) for 10 minutes at room temperature in 15 mM Tris-HCl (pH 7.5), 0.01% tween 20, 2 mM DTT in 384 well plate format. To initiate the reaction the biotinylated substrate peptide (250 nM final concentration) that contains the phosphorylation site for Syk was added with magnesium (5 mM final concentration) and ATP (25 uM final concentration). Final volume of the reaction was 10 uL. Phosphorylation of the peptide was allowed to proceed for 45x at room temperature. To quench the reaction and detect the phosphorylated product, 2 nM of a Europium-anti-phosphotyrosine antibody (Perkin Elmer #AD0161) and 70 nM SA-APC (Perkin-Elmer #CR130-100) were added together in 15 mM Tris pH 7.5.

>  <BAO Format ID>  (117) 
BAO_0000357

>  <BAO Label>  (117) 
single protein format

>  <Assay Organism>  (117) 
Homo sapiens

>  <Target ChEMBL ID>  (117) 
CHEMBL2599

>  <Target Name>  (117) 
Tyrosine-protein kinase SYK

>  <Target Organism>  (117) 
Homo sapiens

>  <Target Type>  (117) 
SINGLE PROTEIN

>  <Document ChEMBL ID>  (117) 
CHEMBL3886158

>  <Source Description>  (117) 
BindingDB Database

>  <Document Journal>  (117) 
nan

>  <Document Year>  (117) 
2015.0

>  <Active>  (117) 
1.0

>  <bits>  (117) 
<rdkit.DataStructs.cDataStructs.ExplicitBitVect object at 0x00000193F3404C10>

>  <Group>  (117) 
G2

$$$$

     RDKit          2D

 32 35  0  0  0  0  0  0  0  0999 V2000
    0.8389    9.5533    0.0000 C   0  0  0  0  0  0  0  0  0  0  0  0
    0.5271    8.0861    0.0000 O   0  0  0  0  0  0  0  0  0  0  0  0
   -0.8995    7.6226    0.0000 C   0  0  0  0  0  0  0  0  0  0  0  0
   -1.2114    6.1554    0.0000 C   0  0  0  0  0  0  0  0  0  0  0  0
   -2.6380    5.6918    0.0000 C   0  0  0  0  0  0  0  0  0  0  0  0
   -2.9499    4.2246    0.0000 N   0  0  0  0  0  0  0  0  0  0  0  0
   -1.8351    3.2209    0.0000 C   0  0  0  0  0  0  0  0  0  0  0  0
   -0.4086    3.6844    0.0000 N   0  0  0  0  0  0  0  0  0  0  0  0
    0.7062    2.6807    0.0000 C   0  0  0  0  0  0  0  0  0  0  0  0
    2.1328    3.1443    0.0000 N   0  0  0  0  0  0  0  0  0  0  0  0
    2.4446    4.6115    0.0000 C   0  0  0  0  0  0  0  0  0  0  0  0
    3.8712    5.0750    0.0000 C   0  0  0  0  0  0  0  0  0  0  0  0
    4.1831    6.5422    0.0000 C   0  0  0  0  0  0  0  0  0  0  0  0
    3.0684    7.5459    0.0000 C   0  0  0  0  0  0  0  0  0  0  0  0
    1.6418    7.0824    0.0000 C   0  0  0  0  0  0  0  0  0  0  0  0
    1.3299    5.6152    0.0000 C   0  0  0  0  0  0  0  0  0  0  0  0
   -0.0967    5.1517    0.0000 N   0  0  0  0  0  0  0  0  0  0  0  0
    0.3943    1.2135    0.0000 N   0  0  0  0  0  0  0  0  0  0  0  0
    1.2760    0.0000    0.0000 N   0  0  0  0  0  0  0  0  0  0  0  0
    0.3943   -1.2135    0.0000 C   0  0  0  0  0  0  0  0  0  0  0  0
    0.8578   -2.6401    0.0000 C   0  0  0  0  0  0  0  0  0  0  0  0
   -1.0323   -0.7500    0.0000 N   0  0  0  0  0  0  0  0  0  0  0  0
   -1.0323    0.7500    0.0000 C   0  0  0  0  0  0  0  0  0  0  0  0
   -2.1470    1.7537    0.0000 C   0  0  0  0  0  0  0  0  0  0  0  0
   -3.5736    1.2902    0.0000 C   0  0  0  0  0  0  0  0  0  0  0  0
   -4.6883    2.2939    0.0000 N   0  0  0  0  0  0  0  0  0  0  0  0
   -3.8855   -0.1771    0.0000 O   0  0  0  0  0  0  0  0  0  0  0  0
   -3.7527    6.6955    0.0000 C   0  0  0  0  0  0  0  0  0  0  0  0
   -3.4408    8.1628    0.0000 C   0  0  0  0  0  0  0  0  0  0  0  0
   -4.5556    9.1664    0.0000 O   0  0  0  0  0  0  0  0  0  0  0  0
   -4.2437   10.6337    0.0000 C   0  0  0  0  0  0  0  0  0  0  0  0
   -2.0143    8.6263    0.0000 C   0  0  0  0  0  0  0  0  0  0  0  0
  1  2  1  0
  2  3  1  0
  3  4  2  0
  4  5  1  0
  5  6  1  0
  6  7  1  0
  7  8  1  0
  8  9  2  0
  9 10  1  0
 10 11  1  0
 11 12  1  0
 12 13  1  0
 13 14  1  0
 14 15  1  0
 15 16  1  0
 16 17  1  6
  9 18  1  0
 18 19  1  0
 19 20  2  0
 20 21  1  0
 20 22  1  0
 22 23  2  0
 23 24  1  0
 24 25  1  0
 25 26  1  0
 25 27  2  0
  5 28  2  0
 28 29  1  0
 29 30  1  0
 30 31  1  0
 29 32  2  0
 32  3  1  0
 24  7  2  0
 16 11  1  0
 23 18  1  0
M  END
>  <Compound_ID>  (118) 
CHEMBL475780

>  <Molecule Name>  (118) 
nan

>  <Molecular Weight>  (118) 
440.51

>  <AlogP>  (118) 
1.97

>  <Smiles>  (118) 
COc1cc(Nc2nc(NC3CCCC[C@H]3N)n3nc(C)nc3c2C(N)=O)cc(OC)c1

>  <Standard Type>  (118) 
IC50

>  <Standard Relation>  (118) 
'='

>  <Standard Units>  (118) 
nM

>  <Standard Value>  (118) 
11.2

>  <Assay ChEMBL ID>  (118) 
CHEMBL1022010

>  <Assay Description>  (118) 
Inhibition of recombinant Syk

>  <BAO Format ID>  (118) 
BAO_0000357

>  <BAO Label>  (118) 
single protein format

>  <Assay Organism>  (118) 
None

>  <Target ChEMBL ID>  (118) 
CHEMBL2599

>  <Target Name>  (118) 
Tyrosine-protein kinase SYK

>  <Target Organism>  (118) 
Homo sapiens

>  <Target Type>  (118) 
SINGLE PROTEIN

>  <Document ChEMBL ID>  (118) 
CHEMBL1138583

>  <Source Description>  (118) 
Scientific Literature

>  <Document Journal>  (118) 
Bioorg Med Chem Lett

>  <Document Year>  (118) 
2009.0

>  <Active>  (118) 
1.0

>  <bits>  (118) 
<rdkit.DataStructs.cDataStructs.ExplicitBitVect object at 0x00000193F3405EE0>

>  <Group>  (118) 
G2

$$$$

     RDKit          2D

 33 37  0  0  0  0  0  0  0  0999 V2000
    1.2447    8.0346    0.0000 C   0  0  0  0  0  0  0  0  0  0  0  0
    2.2484    6.9199    0.0000 N   0  0  0  0  0  0  0  0  0  0  0  0
    3.7156    7.2317    0.0000 C   0  0  0  0  0  0  0  0  0  0  0  0
    4.7193    6.1170    0.0000 C   0  0  0  0  0  0  0  0  0  0  0  0
    4.2558    4.6904    0.0000 C   0  0  0  0  0  0  0  0  0  0  0  0
    2.7886    4.3786    0.0000 C   0  0  0  0  0  0  0  0  0  0  0  0
    2.3250    2.9520    0.0000 N   0  0  0  0  0  0  0  0  0  0  0  0
    0.8578    2.6401    0.0000 C   0  0  0  0  0  0  0  0  0  0  0  0
   -0.1459    3.7548    0.0000 O   0  0  0  0  0  0  0  0  0  0  0  0
    0.3943    1.2135    0.0000 C   0  0  0  0  0  0  0  0  0  0  0  0
    1.2760    0.0000    0.0000 C   0  0  0  0  0  0  0  0  0  0  0  0
    0.3943   -1.2135    0.0000 C   0  0  0  0  0  0  0  0  0  0  0  0
    0.7062   -2.6807    0.0000 C   0  0  0  0  0  0  0  0  0  0  0  0
   -0.4086   -3.6844    0.0000 C   0  0  0  0  0  0  0  0  0  0  0  0
   -0.0967   -5.1517    0.0000 N   0  0  0  0  0  0  0  0  0  0  0  0
   -1.2114   -6.1554    0.0000 C   0  0  0  0  0  0  0  0  0  0  0  0
   -2.6380   -5.6918    0.0000 N   0  0  0  0  0  0  0  0  0  0  0  0
   -3.7527   -6.6955    0.0000 C   0  0  0  0  0  0  0  0  0  0  0  0
   -3.4408   -8.1628    0.0000 C   0  0  0  0  0  0  0  0  0  0  0  0
   -2.0143   -8.6263    0.0000 C   0  0  0  0  0  0  0  0  0  0  0  0
   -1.7024  -10.0935    0.0000 C   0  0  0  0  0  0  0  0  0  0  0  0
   -0.3321  -10.7036    0.0000 C   0  0  0  0  0  0  0  0  0  0  0  0
   -0.4889  -12.1954    0.0000 N   0  0  0  0  0  0  0  0  0  0  0  0
    0.6259  -13.1991    0.0000 C   0  0  0  0  0  0  0  0  0  0  0  0
   -1.9561  -12.5073    0.0000 C   0  0  0  0  0  0  0  0  0  0  0  0
   -2.7061  -11.2082    0.0000 N   0  0  0  0  0  0  0  0  0  0  0  0
   -0.8995   -7.6226    0.0000 N   0  0  0  0  0  0  0  0  0  0  0  0
   -1.8351   -3.2209    0.0000 C   0  0  0  0  0  0  0  0  0  0  0  0
   -2.1470   -1.7537    0.0000 C   0  0  0  0  0  0  0  0  0  0  0  0
   -3.5736   -1.2902    0.0000 Cl  0  0  0  0  0  0  0  0  0  0  0  0
   -1.0323   -0.7500    0.0000 C   0  0  0  0  0  0  0  0  0  0  0  0
   -1.0323    0.7500    0.0000 N   0  0  0  0  0  0  0  0  0  0  0  0
    1.7849    5.4933    0.0000 C   0  0  0  0  0  0  0  0  0  0  0  0
  1  2  1  0
  2  3  1  0
  3  4  1  0
  4  5  1  0
  5  6  1  0
  6  7  1  0
  7  8  1  0
  8  9  2  0
  8 10  1  0
 10 11  2  0
 11 12  1  0
 12 13  2  0
 13 14  1  0
 14 15  1  0
 15 16  1  0
 16 17  2  0
 17 18  1  0
 18 19  2  0
 19 20  1  0
 20 21  1  0
 21 22  2  0
 22 23  1  0
 23 24  1  0
 23 25  1  0
 25 26  2  0
 20 27  2  0
 14 28  2  0
 28 29  1  0
 29 30  1  0
 29 31  2  0
 31 32  1  0
  6 33  1  0
 33  2  1  0
 32 10  1  0
 31 12  1  0
 27 16  1  0
 26 21  1  0
M  END
>  <Compound_ID>  (119) 
CHEMBL3664197

>  <Molecule Name>  (119) 
nan

>  <Molecular Weight>  (119) 
464.96

>  <AlogP>  (119) 
3.58

>  <Smiles>  (119) 
CN1CCCC(NC(=O)c2cc3cc(Nc4nccc(-c5cn(C)cn5)n4)cc(Cl)c3[nH]2)C1

>  <Standard Type>  (119) 
IC50

>  <Standard Relation>  (119) 
'='

>  <Standard Units>  (119) 
nM

>  <Standard Value>  (119) 
6.5

>  <Assay ChEMBL ID>  (119) 
CHEMBL3705905

>  <Assay Description>  (119) 
In Vitro Kinase Assay: Recombinant human Syk (amino acids 342-635) was expressed as a fusion protein with an N-terminal GST tag, affinity-purified and deep-frozen at a concentration of approx. 50-100 uM in test buffer (25 mM HEPES pH7.5; 25 mM MgCl2; 5 mM MnCl2; 50 mM KCl; 0.2% BSA; 0.01% CHAPS; 100 uM Na3VO4; 0.5 mM DTT) and 10% glycerol at -80 C. until use.The catalytic activity of the GST-Syk kinase fusion protein was determined using the Kinase Glo Luminescence Kinase test (Promega; V6712). In this homogeneous test the amount of ATP remaining after the kinase reaction is quantified by a luciferin-luciferase reaction using luminescence. The luminescence signal obtained correlates with the amount of ATP still present and thus correlates inversely with the activity of the protein kinase. Method:The test compounds were dissolved in 100% DMSO at a concentration of 10 mM and diluted in DMSO to a concentration of 1 mM. All further dilutions of the substances were carried out with 7.5% DMSO.

>  <BAO Format ID>  (119) 
BAO_0000357

>  <BAO Label>  (119) 
single protein format

>  <Assay Organism>  (119) 
Homo sapiens

>  <Target ChEMBL ID>  (119) 
CHEMBL2599

>  <Target Name>  (119) 
Tyrosine-protein kinase SYK

>  <Target Organism>  (119) 
Homo sapiens

>  <Target Type>  (119) 
SINGLE PROTEIN

>  <Document ChEMBL ID>  (119) 
CHEMBL3638603

>  <Source Description>  (119) 
BindingDB Database

>  <Document Journal>  (119) 
nan

>  <Document Year>  (119) 
2015.0

>  <Active>  (119) 
1.0

>  <bits>  (119) 
<rdkit.DataStructs.cDataStructs.ExplicitBitVect object at 0x00000193F34050E0>

>  <Group>  (119) 
G2

$$$$

     RDKit          2D

 27 30  0  0  0  0  0  0  0  0999 V2000
   -7.5000   -5.1962    0.0000 N   0  0  0  0  0  0  0  0  0  0  0  0
   -6.0000   -5.1962    0.0000 C   0  0  0  0  0  0  0  0  0  0  0  0
   -5.2500   -3.8971    0.0000 C   0  0  0  0  0  0  0  0  0  0  0  0
   -3.7500   -3.8971    0.0000 C   0  0  0  0  0  0  0  0  0  0  0  0
   -3.0000   -2.5981    0.0000 N   0  0  0  0  0  0  0  0  0  0  0  0
   -1.5000   -2.5981    0.0000 C   0  0  0  0  0  0  0  0  0  0  0  0
   -0.7500   -3.8971    0.0000 N   0  0  0  0  0  0  0  0  0  0  0  0
    0.7500   -3.8971    0.0000 C   0  0  0  0  0  0  0  0  0  0  0  0
    1.5000   -5.1962    0.0000 C   0  0  0  0  0  0  0  0  0  0  0  0
    0.7500   -6.4952    0.0000 C   0  0  0  0  0  0  0  0  0  0  0  0
    1.5000   -7.7942    0.0000 C   0  0  0  0  0  0  0  0  0  0  0  0
    3.0000   -7.7942    0.0000 C   0  0  0  0  0  0  0  0  0  0  0  0
    3.7500   -9.0933    0.0000 N   0  0  0  0  0  0  0  0  0  0  0  0
    3.0000  -10.3923    0.0000 C   0  0  0  0  0  0  0  0  0  0  0  0
    3.7500  -11.6913    0.0000 C   0  0  0  0  0  0  0  0  0  0  0  0
    5.2500  -11.6913    0.0000 O   0  0  0  0  0  0  0  0  0  0  0  0
    6.0000  -10.3923    0.0000 C   0  0  0  0  0  0  0  0  0  0  0  0
    5.2500   -9.0933    0.0000 C   0  0  0  0  0  0  0  0  0  0  0  0
    3.7500   -6.4952    0.0000 C   0  0  0  0  0  0  0  0  0  0  0  0
    3.0000   -5.1962    0.0000 C   0  0  0  0  0  0  0  0  0  0  0  0
    1.5000   -2.5981    0.0000 C   0  0  0  0  0  0  0  0  0  0  0  0
    0.7500   -1.2990    0.0000 C   0  0  0  0  0  0  0  0  0  0  0  0
    1.5000    0.0000    0.0000 C   0  0  0  0  0  0  0  0  0  0  0  0
    0.7500    1.2990    0.0000 C   0  0  0  0  0  0  0  0  0  0  0  0
   -0.7500    1.2990    0.0000 C   0  0  0  0  0  0  0  0  0  0  0  0
   -1.5000    0.0000    0.0000 C   0  0  0  0  0  0  0  0  0  0  0  0
   -0.7500   -1.2990    0.0000 C   0  0  0  0  0  0  0  0  0  0  0  0
  1  2  1  0
  2  3  1  0
  3  4  1  0
  4  5  1  0
  5  6  1  0
  6  7  2  0
  7  8  1  0
  8  9  1  0
  9 10  2  0
 10 11  1  0
 11 12  2  0
 12 13  1  0
 13 14  1  0
 14 15  1  0
 15 16  1  0
 16 17  1  0
 17 18  1  0
 12 19  1  0
 19 20  2  0
  8 21  2  0
 21 22  1  0
 22 23  2  0
 23 24  1  0
 24 25  2  0
 25 26  1  0
 26 27  2  0
 27  6  1  0
 20  9  1  0
 27 22  1  0
 18 13  1  0
M  END
>  <Compound_ID>  (120) 
CHEMBL512345

>  <Molecule Name>  (120) 
nan

>  <Molecular Weight>  (120) 
362.48

>  <AlogP>  (120) 
3.50

>  <Smiles>  (120) 
NCCCNc1nc(-c2ccc(N3CCOCC3)cc2)cc2ccccc12

>  <Standard Type>  (120) 
IC50

>  <Standard Relation>  (120) 
'='

>  <Standard Units>  (120) 
nM

>  <Standard Value>  (120) 
8.0

>  <Assay ChEMBL ID>  (120) 
CHEMBL945309

>  <Assay Description>  (120) 
Inhibition of SYK

>  <BAO Format ID>  (120) 
BAO_0000357

>  <BAO Label>  (120) 
single protein format

>  <Assay Organism>  (120) 
None

>  <Target ChEMBL ID>  (120) 
CHEMBL2599

>  <Target Name>  (120) 
Tyrosine-protein kinase SYK

>  <Target Organism>  (120) 
Homo sapiens

>  <Target Type>  (120) 
SINGLE PROTEIN

>  <Document ChEMBL ID>  (120) 
CHEMBL1152268

>  <Source Description>  (120) 
Scientific Literature

>  <Document Journal>  (120) 
Bioorg Med Chem Lett

>  <Document Year>  (120) 
2008.0

>  <Active>  (120) 
1.0

>  <bits>  (120) 
<rdkit.DataStructs.cDataStructs.ExplicitBitVect object at 0x00000193F3407BC0>

>  <Group>  (120) 
G2

$$$$

     RDKit          2D

 26 28  0  0  0  0  0  0  0  0999 V2000
    3.7500   -1.2990    0.0000 C   0  0  0  0  0  0  0  0  0  0  0  0
    3.0000    0.0000    0.0000 O   0  0  0  0  0  0  0  0  0  0  0  0
    1.5000    0.0000    0.0000 C   0  0  0  0  0  0  0  0  0  0  0  0
    0.7500   -1.2990    0.0000 C   0  0  0  0  0  0  0  0  0  0  0  0
   -0.7500   -1.2990    0.0000 C   0  0  0  0  0  0  0  0  0  0  0  0
   -1.5000   -2.5981    0.0000 N   0  0  0  0  0  0  0  0  0  0  0  0
   -3.0000   -2.5981    0.0000 C   0  0  0  0  0  0  0  0  0  0  0  0
   -3.7500   -1.2990    0.0000 N   0  0  0  0  0  0  0  0  0  0  0  0
   -5.2500   -1.2990    0.0000 C   0  0  0  0  0  0  0  0  0  0  0  0
   -6.0000   -2.5981    0.0000 C   0  0  0  0  0  0  0  0  0  0  0  0
   -5.2500   -3.8971    0.0000 C   0  0  0  0  0  0  0  0  0  0  0  0
   -6.0000   -5.1962    0.0000 C   0  0  0  0  0  0  0  0  0  0  0  0
   -5.3899   -6.5665    0.0000 N   0  0  0  0  0  0  0  0  0  0  0  0
   -6.5046   -7.5702    0.0000 C   0  0  0  0  0  0  0  0  0  0  0  0
   -6.3478   -9.0619    0.0000 C   0  0  0  0  0  0  0  0  0  0  0  0
   -7.5613   -9.9436    0.0000 O   0  0  0  0  0  0  0  0  0  0  0  0
   -7.8037   -6.8202    0.0000 C   0  0  0  0  0  0  0  0  0  0  0  0
   -7.4918   -5.3529    0.0000 S   0  0  0  0  0  0  0  0  0  0  0  0
   -3.7500   -3.8971    0.0000 N   0  0  0  0  0  0  0  0  0  0  0  0
   -1.5000    0.0000    0.0000 C   0  0  0  0  0  0  0  0  0  0  0  0
   -0.7500    1.2990    0.0000 C   0  0  0  0  0  0  0  0  0  0  0  0
   -1.5000    2.5981    0.0000 C   0  0  0  0  0  0  0  0  0  0  0  0
   -2.2500    3.8971    0.0000 F   0  0  0  0  0  0  0  0  0  0  0  0
   -0.2010    3.3481    0.0000 F   0  0  0  0  0  0  0  0  0  0  0  0
   -2.7990    1.8481    0.0000 F   0  0  0  0  0  0  0  0  0  0  0  0
    0.7500    1.2990    0.0000 C   0  0  0  0  0  0  0  0  0  0  0  0
  1  2  1  0
  2  3  1  0
  3  4  2  0
  4  5  1  0
  5  6  1  0
  6  7  1  0
  7  8  2  0
  8  9  1  0
  9 10  2  0
 10 11  1  0
 11 12  1  0
 12 13  2  0
 13 14  1  0
 14 15  1  0
 15 16  1  0
 14 17  2  0
 17 18  1  0
 11 19  2  0
  5 20  2  0
 20 21  1  0
 21 22  1  0
 22 23  1  0
 22 24  1  0
 22 25  1  0
 21 26  2  0
 26  3  1  0
 19  7  1  0
 18 12  1  0
M  END
>  <Compound_ID>  (121) 
CHEMBL486751

>  <Molecule Name>  (121) 
nan

>  <Molecular Weight>  (121) 
382.37

>  <AlogP>  (121) 
3.86

>  <Smiles>  (121) 
COc1cc(Nc2nccc(-c3nc(CO)cs3)n2)cc(C(F)(F)F)c1

>  <Standard Type>  (121) 
Ki

>  <Standard Relation>  (121) 
'='

>  <Standard Units>  (121) 
nM

>  <Standard Value>  (121) 
33.0

>  <Assay ChEMBL ID>  (121) 
CHEMBL945309

>  <Assay Description>  (121) 
Inhibition of SYK

>  <BAO Format ID>  (121) 
BAO_0000357

>  <BAO Label>  (121) 
single protein format

>  <Assay Organism>  (121) 
None

>  <Target ChEMBL ID>  (121) 
CHEMBL2599

>  <Target Name>  (121) 
Tyrosine-protein kinase SYK

>  <Target Organism>  (121) 
Homo sapiens

>  <Target Type>  (121) 
SINGLE PROTEIN

>  <Document ChEMBL ID>  (121) 
CHEMBL1152268

>  <Source Description>  (121) 
Scientific Literature

>  <Document Journal>  (121) 
Bioorg Med Chem Lett

>  <Document Year>  (121) 
2008.0

>  <Active>  (121) 
1.0

>  <bits>  (121) 
<rdkit.DataStructs.cDataStructs.ExplicitBitVect object at 0x00000193F34073E0>

>  <Group>  (121) 
G2

$$$$

     RDKit          2D

 34 38  0  0  0  0  0  0  0  0999 V2000
   -6.6589    5.3686    0.0000 C   0  0  0  0  0  0  0  0  0  0  0  0
   -5.1671    5.2118    0.0000 N   0  0  0  0  0  0  0  0  0  0  0  0
   -4.4171    3.9127    0.0000 C   0  0  0  0  0  0  0  0  0  0  0  0
   -2.9499    4.2246    0.0000 C   0  0  0  0  0  0  0  0  0  0  0  0
   -1.8351    3.2209    0.0000 C   0  0  0  0  0  0  0  0  0  0  0  0
   -0.4086    3.6844    0.0000 C   0  0  0  0  0  0  0  0  0  0  0  0
    0.7062    2.6807    0.0000 C   0  0  0  0  0  0  0  0  0  0  0  0
    2.1328    3.1443    0.0000 N   0  0  0  0  0  0  0  0  0  0  0  0
    2.4446    4.6115    0.0000 C   0  0  0  0  0  0  0  0  0  0  0  0
    3.8712    5.0750    0.0000 N   0  0  0  0  0  0  0  0  0  0  0  0
    4.1831    6.5422    0.0000 C   0  0  0  0  0  0  0  0  0  0  0  0
    5.6097    7.0058    0.0000 N   0  0  0  0  0  0  0  0  0  0  0  0
    6.7244    6.0021    0.0000 C   0  0  0  0  0  0  0  0  0  0  0  0
    6.4125    4.5348    0.0000 C   0  0  0  0  0  0  0  0  0  0  0  0
    7.5272    3.5312    0.0000 C   0  0  0  0  0  0  0  0  0  0  0  0
    8.9538    3.9947    0.0000 C   0  0  0  0  0  0  0  0  0  0  0  0
    9.2657    5.4619    0.0000 C   0  0  0  0  0  0  0  0  0  0  0  0
    8.1510    6.4656    0.0000 C   0  0  0  0  0  0  0  0  0  0  0  0
    8.4628    7.9328    0.0000 N   0  0  0  0  0  0  0  0  0  0  0  0
    3.0684    7.5459    0.0000 N   0  0  0  0  0  0  0  0  0  0  0  0
    1.6418    7.0824    0.0000 N   0  0  0  0  0  0  0  0  0  0  0  0
    1.3299    5.6152    0.0000 C   0  0  0  0  0  0  0  0  0  0  0  0
   -0.0967    5.1517    0.0000 C   0  0  0  0  0  0  0  0  0  0  0  0
   -1.2114    6.1554    0.0000 N   0  0  0  0  0  0  0  0  0  0  0  0
   -0.4462    4.4352    0.0000 O   0  0  0  0  0  0  0  0  0  0  0  0
    0.3943    1.2135    0.0000 C   0  0  0  0  0  0  0  0  0  0  0  0
    1.2760   -0.0000    0.0000 C   0  0  0  0  0  0  0  0  0  0  0  0
    0.3943   -1.2135    0.0000 N   0  0  0  0  0  0  0  0  0  0  0  0
   -1.0323   -0.7500    0.0000 N   0  0  0  0  0  0  0  0  0  0  0  0
   -2.2458   -1.6317    0.0000 C   0  0  0  0  0  0  0  0  0  0  0  0
   -1.0323    0.7500    0.0000 C   0  0  0  0  0  0  0  0  0  0  0  0
   -2.1470    1.7537    0.0000 C   0  0  0  0  0  0  0  0  0  0  0  0
   -2.7931    5.7164    0.0000 C   0  0  0  0  0  0  0  0  0  0  0  0
   -4.1634    6.3265    0.0000 N   0  0  0  0  0  0  0  0  0  0  0  0
  1  2  1  0
  2  3  1  0
  3  4  2  0
  4  5  1  0
  5  6  2  0
  6  7  1  0
  7  8  1  0
  8  9  1  0
  9 10  2  0
 10 11  1  0
 11 12  1  0
 13 12  1  1
 13 14  1  0
 14 15  1  0
 15 16  1  0
 16 17  1  0
 17 18  1  0
 18 19  1  1
 11 20  2  0
 20 21  1  0
 21 22  2  0
 22 23  1  0
 23 24  1  0
 23 25  2  0
  7 26  2  0
 26 27  1  0
 27 28  2  0
 28 29  1  0
 29 30  1  0
 29 31  1  0
 31 32  2  0
  4 33  1  0
 33 34  2  0
 34  2  1  0
 32  5  1  0
 22  9  1  0
 31 26  1  0
 18 13  1  0
M  END
>  <Compound_ID>  (122) 
CHEMBL3942355

>  <Molecule Name>  (122) 
nan

>  <Molecular Weight>  (122) 
461.53

>  <AlogP>  (122) 
1.68

>  <Smiles>  (122) 
Cn1cc(-c2cc(Nc3nc(N[C@@H]4CCCC[C@@H]4N)nnc3C(N)=O)c3cnn(C)c3c2)cn1

>  <Standard Type>  (122) 
IC50

>  <Standard Relation>  (122) 
'='

>  <Standard Units>  (122) 
nM

>  <Standard Value>  (122) 
0.49

>  <Assay ChEMBL ID>  (122) 
CHEMBL3887308

>  <Assay Description>  (122) 
Syk Kinase Inhibition Assay: The in vitro inhibitory activity of the compound of the present invention against Syk kinase activity was assayed under the following conditions: the purified human Syk protein used in the test were purchased from Carna Biosciences, Inc. For the inhibitory activity assay on the compound, the compound of the present invention was first serially diluted with dimethyl sulfoxide (DMSO). Next, the purified human Syk protein FL-Peptide 22 (final concentration: 1 uM) (Caliper Life Sciences, Inc.), magnesium chloride (final concentration: 5 mM), ATP (final concentration: 30 uM), and each DMSO solution of the compound of the present invention (final concentration of DMSO: 5%) were added into a buffer solution for reaction (20 mM tris-HCl pH 7.5, 20 mM NaCl, 2.5 mM DTT, 0.02% Tween-20, 1% glycerol, 0.01 mM Pefabloc), and the mixture was then incubated at 25° C. for 30 minutes to perform kinase reaction. The kinase reaction was stopped by the addition thereto of EDTA.

>  <BAO Format ID>  (122) 
BAO_0000357

>  <BAO Label>  (122) 
single protein format

>  <Assay Organism>  (122) 
Homo sapiens

>  <Target ChEMBL ID>  (122) 
CHEMBL2599

>  <Target Name>  (122) 
Tyrosine-protein kinase SYK

>  <Target Organism>  (122) 
Homo sapiens

>  <Target Type>  (122) 
SINGLE PROTEIN

>  <Document ChEMBL ID>  (122) 
CHEMBL3886160

>  <Source Description>  (122) 
BindingDB Database

>  <Document Journal>  (122) 
nan

>  <Document Year>  (122) 
2015.0

>  <Active>  (122) 
1.0

>  <bits>  (122) 
<rdkit.DataStructs.cDataStructs.ExplicitBitVect object at 0x00000193F3405770>

>  <Group>  (122) 
G2

$$$$

     RDKit          2D

 28 31  0  0  0  0  0  0  0  0999 V2000
    5.0260   -1.2990    0.0000 C   0  0  0  0  0  0  0  0  0  0  0  0
    3.5260   -1.2990    0.0000 N   0  0  0  0  0  0  0  0  0  0  0  0
    2.7760   -2.5981    0.0000 C   0  0  0  0  0  0  0  0  0  0  0  0
    2.7760    0.0000    0.0000 C   0  0  0  0  0  0  0  0  0  0  0  0
    3.5260    1.2990    0.0000 O   0  0  0  0  0  0  0  0  0  0  0  0
    1.2760    0.0000    0.0000 C   0  0  0  0  0  0  0  0  0  0  0  0
    0.3943    1.2135    0.0000 C   0  0  0  0  0  0  0  0  0  0  0  0
   -1.0323    0.7500    0.0000 C   0  0  0  0  0  0  0  0  0  0  0  0
   -2.3313    1.5000    0.0000 C   0  0  0  0  0  0  0  0  0  0  0  0
   -3.6304    0.7500    0.0000 C   0  0  0  0  0  0  0  0  0  0  0  0
   -4.9294    1.5000    0.0000 N   0  0  0  0  0  0  0  0  0  0  0  0
   -4.9294    3.0000    0.0000 C   0  0  0  0  0  0  0  0  0  0  0  0
   -3.6304    3.7500    0.0000 N   0  0  0  0  0  0  0  0  0  0  0  0
   -3.6304    5.2500    0.0000 C   0  0  0  0  0  0  0  0  0  0  0  0
   -4.9294    6.0000    0.0000 C   0  0  0  0  0  0  0  0  0  0  0  0
   -6.2284    5.2500    0.0000 C   0  0  0  0  0  0  0  0  0  0  0  0
   -7.5275    6.0000    0.0000 C   0  0  0  0  0  0  0  0  0  0  0  0
   -8.8978    5.3899    0.0000 C   0  0  0  0  0  0  0  0  0  0  0  0
   -9.9015    6.5046    0.0000 N   0  0  0  0  0  0  0  0  0  0  0  0
  -11.3933    6.3478    0.0000 C   0  0  0  0  0  0  0  0  0  0  0  0
   -9.1515    7.8037    0.0000 C   0  0  0  0  0  0  0  0  0  0  0  0
   -7.6843    7.4918    0.0000 N   0  0  0  0  0  0  0  0  0  0  0  0
   -6.2284    3.7500    0.0000 N   0  0  0  0  0  0  0  0  0  0  0  0
   -3.6304   -0.7500    0.0000 C   0  0  0  0  0  0  0  0  0  0  0  0
   -2.3313   -1.5000    0.0000 C   0  0  0  0  0  0  0  0  0  0  0  0
   -2.3313   -3.0000    0.0000 Cl  0  0  0  0  0  0  0  0  0  0  0  0
   -1.0323   -0.7500    0.0000 C   0  0  0  0  0  0  0  0  0  0  0  0
    0.3943   -1.2135    0.0000 N   0  0  0  0  0  0  0  0  0  0  0  0
  1  2  1  0
  2  3  1  0
  2  4  1  0
  4  5  2  0
  4  6  1  0
  6  7  2  0
  7  8  1  0
  8  9  2  0
  9 10  1  0
 10 11  1  0
 11 12  1  0
 12 13  2  0
 13 14  1  0
 14 15  2  0
 15 16  1  0
 16 17  1  0
 17 18  2  0
 18 19  1  0
 19 20  1  0
 19 21  1  0
 21 22  2  0
 16 23  2  0
 10 24  2  0
 24 25  1  0
 25 26  1  0
 25 27  2  0
 27 28  1  0
 28  6  1  0
 27  8  1  0
 23 12  1  0
 22 17  1  0
M  END
>  <Compound_ID>  (123) 
CHEMBL3664147

>  <Molecule Name>  (123) 
nan

>  <Molecular Weight>  (123) 
395.85

>  <AlogP>  (123) 
3.46

>  <Smiles>  (123) 
CN(C)C(=O)c1cc2cc(Nc3nccc(-c4cn(C)cn4)n3)cc(Cl)c2[nH]1

>  <Standard Type>  (123) 
IC50

>  <Standard Relation>  (123) 
'='

>  <Standard Units>  (123) 
nM

>  <Standard Value>  (123) 
2.8

>  <Assay ChEMBL ID>  (123) 
CHEMBL3706038

>  <Assay Description>  (123) 
In Vitro Kinase Assay: Recombinant human Syk (amino acids 342-635) was expressed as a fusion protein with an N-terminal GST tag, affinity-purified and deep-frozen at a concentration of approx. 50-100 uM in test buffer (25 mM HEPES pH7.5; 25 mM MgCl2; 5 mM MnCl2; 50 mM KCl; 1% HSA; 0.01% CHAPS; 100 uM Na3VO4; 0.5 mM DTT) and 10% glycerol at -80 C. until use.The catalytic activity of the GST-Syk kinase fusion protein was determined using the Kinase Glo Luminescence Kinase test (Promega; V6712). In this homogeneous test the amount of ATP remaining after the kinase reaction is quantified by a luciferin-luciferase reaction using luminescence. The luminescence signal obtained correlates with the amount of ATP still present and thus correlates inversely with the activity of the protein kinase. Method:The test compounds were dissolved in 100% DMSO at a concentration of 10 mM and diluted in DMSO to a concentration of 1 mM. All further dilutions of the substances were carried out with 7.5% DMSO.

>  <BAO Format ID>  (123) 
BAO_0000357

>  <BAO Label>  (123) 
single protein format

>  <Assay Organism>  (123) 
Homo sapiens

>  <Target ChEMBL ID>  (123) 
CHEMBL2599

>  <Target Name>  (123) 
Tyrosine-protein kinase SYK

>  <Target Organism>  (123) 
Homo sapiens

>  <Target Type>  (123) 
SINGLE PROTEIN

>  <Document ChEMBL ID>  (123) 
CHEMBL3638603

>  <Source Description>  (123) 
BindingDB Database

>  <Document Journal>  (123) 
nan

>  <Document Year>  (123) 
2015.0

>  <Active>  (123) 
1.0

>  <bits>  (123) 
<rdkit.DataStructs.cDataStructs.ExplicitBitVect object at 0x00000193F3406EA0>

>  <Group>  (123) 
G2

$$$$

     RDKit          2D

 41 45  0  0  0  0  0  0  0  0999 V2000
   -8.2500  -14.2894    0.0000 C   0  0  0  0  0  0  0  0  0  0  0  0
   -7.5000  -12.9904    0.0000 C   0  0  0  0  0  0  0  0  0  0  0  0
   -8.2500  -11.6913    0.0000 C   0  0  0  0  0  0  0  0  0  0  0  0
   -7.5000  -10.3923    0.0000 C   0  0  0  0  0  0  0  0  0  0  0  0
   -6.0000  -10.3923    0.0000 O   0  0  0  0  0  0  0  0  0  0  0  0
   -8.2500   -9.0933    0.0000 C   0  0  0  0  0  0  0  0  0  0  0  0
   -9.7500   -9.0933    0.0000 C   0  0  0  0  0  0  0  0  0  0  0  0
  -10.5000  -10.3923    0.0000 C   0  0  0  0  0  0  0  0  0  0  0  0
   -7.5000   -7.7942    0.0000 C   0  0  0  0  0  0  0  0  0  0  0  0
   -6.0000   -7.7942    0.0000 O   0  0  0  0  0  0  0  0  0  0  0  0
   -5.2500   -6.4952    0.0000 C   0  0  0  0  0  0  0  0  0  0  0  0
   -6.0000   -5.1962    0.0000 C   0  0  0  0  0  0  0  0  0  0  0  0
   -5.2500   -3.8971    0.0000 C   0  0  0  0  0  0  0  0  0  0  0  0
   -3.7500   -3.8971    0.0000 N   0  0  0  0  0  0  0  0  0  0  0  0
   -3.0000   -5.1962    0.0000 C   0  0  0  0  0  0  0  0  0  0  0  0
   -1.5000   -5.1962    0.0000 C   0  0  0  0  0  0  0  0  0  0  0  0
   -0.7500   -6.4952    0.0000 C   0  0  0  0  0  0  0  0  0  0  0  0
    0.7500   -6.4952    0.0000 C   0  0  0  0  0  0  0  0  0  0  0  0
    1.5000   -5.1962    0.0000 N   0  0  0  0  0  0  0  0  0  0  0  0
    0.7500   -3.8971    0.0000 C   0  0  0  0  0  0  0  0  0  0  0  0
    1.5000   -2.5981    0.0000 N   0  0  0  0  0  0  0  0  0  0  0  0
    0.7500   -1.2990    0.0000 C   0  0  0  0  0  0  0  0  0  0  0  0
    1.5000    0.0000    0.0000 C   0  0  0  0  0  0  0  0  0  0  0  0
    0.7500    1.2990    0.0000 C   0  0  0  0  0  0  0  0  0  0  0  0
   -0.7500    1.2990    0.0000 C   0  0  0  0  0  0  0  0  0  0  0  0
   -1.7537    2.4138    0.0000 N   0  0  0  0  0  0  0  0  0  0  0  0
   -3.1240    1.8037    0.0000 C   0  0  0  0  0  0  0  0  0  0  0  0
   -4.4231    2.5537    0.0000 C   0  0  0  0  0  0  0  0  0  0  0  0
   -5.7221    1.8037    0.0000 O   0  0  0  0  0  0  0  0  0  0  0  0
   -4.4231    4.0537    0.0000 N   0  0  0  0  0  0  0  0  0  0  0  0
   -3.1240    4.8037    0.0000 C   0  0  0  0  0  0  0  0  0  0  0  0
   -3.1240    6.3037    0.0000 C   0  0  0  0  0  0  0  0  0  0  0  0
   -4.4231    7.0537    0.0000 N   0  0  0  0  0  0  0  0  0  0  0  0
   -4.4231    8.5537    0.0000 C   0  0  0  0  0  0  0  0  0  0  0  0
   -5.7221    6.3037    0.0000 C   0  0  0  0  0  0  0  0  0  0  0  0
   -5.7221    4.8037    0.0000 C   0  0  0  0  0  0  0  0  0  0  0  0
   -2.9672    0.3119    0.0000 C   0  0  0  0  0  0  0  0  0  0  0  0
   -1.5000    0.0000    0.0000 C   0  0  0  0  0  0  0  0  0  0  0  0
   -0.7500   -1.2990    0.0000 C   0  0  0  0  0  0  0  0  0  0  0  0
   -0.7500   -3.8971    0.0000 N   0  0  0  0  0  0  0  0  0  0  0  0
   -3.7500   -6.4952    0.0000 C   0  0  0  0  0  0  0  0  0  0  0  0
  1  2  1  0
  2  3  1  0
  3  4  1  0
  4  5  1  0
  4  6  1  0
  6  7  1  0
  7  8  1  0
  6  9  1  0
  9 10  1  0
 10 11  1  0
 11 12  2  0
 12 13  1  0
 13 14  2  0
 14 15  1  0
 15 16  1  0
 16 17  2  0
 17 18  1  0
 18 19  2  0
 19 20  1  0
 20 21  1  0
 21 22  1  0
 22 23  2  0
 23 24  1  0
 24 25  2  0
 25 26  1  0
 26 27  1  0
 27 28  1  0
 28 29  2  0
 28 30  1  0
 30 31  1  0
 31 32  1  0
 32 33  1  0
 33 34  1  0
 33 35  1  0
 35 36  1  0
 27 37  2  0
 37 38  1  0
 38 39  2  0
 20 40  2  0
 15 41  2  0
 41 11  1  0
 40 16  1  0
 39 22  1  0
 38 25  1  0
 36 30  1  0
M  END
>  <Compound_ID>  (124) 
CHEMBL3641579

>  <Molecule Name>  (124) 
nan

>  <Molecular Weight>  (124) 
557.7

>  <AlogP>  (124) 
4.72

>  <Smiles>  (124) 
CCCC(O)C(CC)COc1ccnc(-c2ccnc(Nc3ccc4[nH]c(C(=O)N5CCN(C)CC5)cc4c3)n2)c1

>  <Standard Type>  (124) 
IC50

>  <Standard Relation>  (124) 
'='

>  <Standard Units>  (124) 
nM

>  <Standard Value>  (124) 
58.7

>  <Assay ChEMBL ID>  (124) 
CHEMBL3705803

>  <Assay Description>  (124) 
Kinase Glo Luminescence Kinase Assay: Recombinant human Syk (amino acids 342-635) was expressed as a fusion protein with an N-terminal GST tag, affinity-purified and deep-frozen at a concentration of approx. 50-100 uM in test buffer (25 mM HEPES pH7.5; 25 mM MgCl2; 5 mM MnCl2; 50 mM KCl; 0.2% BSA; 0.01% CHAPS; 100 uM Na3VO4; 0.5 mM DTT) and 10% glycerol at -80 C until use. The catalytic activity of the GST-Syk kinase fusion protein was determined using the Kinase Glo Luminescence Kinase test (Promega; V6712). In this homogeneous test the amount of ATP remaining after the kinase reaction is quantified by a luciferin-luciferase reaction using luminescence. The luminescence signal obtained correlates with the amount of ATP still present and thus correlates inversely with the activity of the protein kinase. The test compounds were dissolved in 100% DMSO at a concentration of 10 mM and diluted in DMSO to a concentration of 1 mM.

>  <BAO Format ID>  (124) 
BAO_0000357

>  <BAO Label>  (124) 
single protein format

>  <Assay Organism>  (124) 
Homo sapiens

>  <Target ChEMBL ID>  (124) 
CHEMBL2599

>  <Target Name>  (124) 
Tyrosine-protein kinase SYK

>  <Target Organism>  (124) 
Homo sapiens

>  <Target Type>  (124) 
SINGLE PROTEIN

>  <Document ChEMBL ID>  (124) 
CHEMBL3638486

>  <Source Description>  (124) 
BindingDB Database

>  <Document Journal>  (124) 
nan

>  <Document Year>  (124) 
2014.0

>  <Active>  (124) 
1.0

>  <bits>  (124) 
<rdkit.DataStructs.cDataStructs.ExplicitBitVect object at 0x00000193F3404900>

>  <Group>  (124) 
G2

$$$$

     RDKit          2D

 31 34  0  0  0  0  0  0  0  0999 V2000
    5.2500  -11.6913    0.0000 C   0  0  0  0  0  0  0  0  0  0  0  0
    6.0000  -10.3923    0.0000 C   0  0  0  0  0  0  0  0  0  0  0  0
    5.2500   -9.0933    0.0000 N   0  0  0  0  0  0  0  0  0  0  0  0
    3.7500   -9.0933    0.0000 C   0  0  0  0  0  0  0  0  0  0  0  0
    3.0000   -7.7942    0.0000 C   0  0  0  0  0  0  0  0  0  0  0  0
    3.7500   -6.4952    0.0000 N   0  0  0  0  0  0  0  0  0  0  0  0
    3.0000   -5.1962    0.0000 C   0  0  0  0  0  0  0  0  0  0  0  0
    3.7500   -3.8971    0.0000 C   0  0  0  0  0  0  0  0  0  0  0  0
    3.0000   -2.5981    0.0000 C   0  0  0  0  0  0  0  0  0  0  0  0
    1.5000   -2.5981    0.0000 C   0  0  0  0  0  0  0  0  0  0  0  0
    0.7500   -1.2990    0.0000 C   0  0  0  0  0  0  0  0  0  0  0  0
    1.5000    0.0000    0.0000 C   0  0  0  0  0  0  0  0  0  0  0  0
    0.7500    1.2990    0.0000 C   0  0  0  0  0  0  0  0  0  0  0  0
    1.5000    2.5981    0.0000 N   0  0  0  0  0  0  0  0  0  0  0  0
    0.7500    3.8971    0.0000 C   0  0  0  0  0  0  0  0  0  0  0  0
   -0.7500    3.8971    0.0000 N   0  0  0  0  0  0  0  0  0  0  0  0
   -1.5000    5.1962    0.0000 C   0  0  0  0  0  0  0  0  0  0  0  0
   -1.5000    2.5981    0.0000 C   0  0  0  0  0  0  0  0  0  0  0  0
   -3.0000    2.5981    0.0000 O   0  0  0  0  0  0  0  0  0  0  0  0
   -0.7500    1.2990    0.0000 C   0  0  0  0  0  0  0  0  0  0  0  0
   -1.5000    0.0000    0.0000 C   0  0  0  0  0  0  0  0  0  0  0  0
   -3.0000    0.0000    0.0000 N   0  0  0  0  0  0  0  0  0  0  0  0
   -3.7500   -1.2990    0.0000 C   0  0  0  0  0  0  0  0  0  0  0  0
   -5.2500   -1.2990    0.0000 C   0  0  0  0  0  0  0  0  0  0  0  0
   -6.0000   -2.5981    0.0000 C   0  0  0  0  0  0  0  0  0  0  0  0
   -7.5000   -2.5981    0.0000 O   0  0  0  0  0  0  0  0  0  0  0  0
   -0.7500   -1.2990    0.0000 N   0  0  0  0  0  0  0  0  0  0  0  0
    0.7500   -3.8971    0.0000 C   0  0  0  0  0  0  0  0  0  0  0  0
    1.5000   -5.1962    0.0000 C   0  0  0  0  0  0  0  0  0  0  0  0
    5.2500   -6.4952    0.0000 C   0  0  0  0  0  0  0  0  0  0  0  0
    6.0000   -7.7942    0.0000 C   0  0  0  0  0  0  0  0  0  0  0  0
  1  2  1  0
  2  3  1  0
  3  4  1  0
  4  5  1  0
  5  6  1  0
  6  7  1  0
  7  8  2  0
  8  9  1  0
  9 10  2  0
 10 11  1  0
 11 12  2  0
 12 13  1  0
 13 14  1  0
 14 15  2  0
 15 16  1  0
 16 17  1  0
 16 18  1  0
 18 19  2  0
 18 20  1  0
 20 21  1  0
 21 22  1  0
 22 23  1  0
 23 24  1  0
 24 25  1  0
 25 26  1  0
 21 27  2  0
 10 28  1  0
 28 29  2  0
  6 30  1  0
 30 31  1  0
 31  3  1  0
 29  7  1  0
 27 11  1  0
 20 13  2  0
M  END
>  <Compound_ID>  (125) 
CHEMBL3641408

>  <Molecule Name>  (125) 
nan

>  <Molecular Weight>  (125) 
422.53

>  <AlogP>  (125) 
1.93

>  <Smiles>  (125) 
CCN1CCN(c2ccc(-c3cc4ncn(C)c(=O)c4c(NCCCO)n3)cc2)CC1

>  <Standard Type>  (125) 
IC50

>  <Standard Relation>  (125) 
'='

>  <Standard Units>  (125) 
nM

>  <Standard Value>  (125) 
50.0

>  <Assay ChEMBL ID>  (125) 
CHEMBL3705362

>  <Assay Description>  (125) 
Mobility-Shift kinase assay: Compounds of the examples provided herein were assessed for their ability to inhibit Syk kinase by utilizing Caliper Life Sciences' proprietary LabChip technology. The off-chip incubation mobility-shift kinase assay uses a microfluidic chip to measure the conversion of a fluorescent peptide substrate to a phosphorylated product. The reaction mixture, from a microtiter plate well, is introduced through a capillary sipper onto the chip, where the nonphosphorylated substrate and phosphorylated product are separated by electrophoresis and detected via laser induced fluorescence. The signature of the fluorescence signal over time reveals the extent of the reaction. The phosphorylated product migrates through the chip faster than the non-phosphorylated substrate, and signals from the two forms of the peptide appear as distinct peaks.

>  <BAO Format ID>  (125) 
BAO_0000357

>  <BAO Label>  (125) 
single protein format

>  <Assay Organism>  (125) 
Homo sapiens

>  <Target ChEMBL ID>  (125) 
CHEMBL2599

>  <Target Name>  (125) 
Tyrosine-protein kinase SYK

>  <Target Organism>  (125) 
Homo sapiens

>  <Target Type>  (125) 
SINGLE PROTEIN

>  <Document ChEMBL ID>  (125) 
CHEMBL3639055

>  <Source Description>  (125) 
BindingDB Database

>  <Document Journal>  (125) 
nan

>  <Document Year>  (125) 
2014.0

>  <Active>  (125) 
1.0

>  <bits>  (125) 
<rdkit.DataStructs.cDataStructs.ExplicitBitVect object at 0x00000193F3404A50>

>  <Group>  (125) 
G2

$$$$

     RDKit          2D

 23 26  0  0  0  0  0  0  0  0999 V2000
   -0.0000   -5.1073    0.0000 N   0  0  0  0  0  0  0  0  0  0  0  0
   -0.0000   -3.6073    0.0000 C   0  0  0  0  0  0  0  0  0  0  0  0
    1.2135   -2.7256    0.0000 N   0  0  0  0  0  0  0  0  0  0  0  0
    0.7500   -1.2990    0.0000 C   0  0  0  0  0  0  0  0  0  0  0  0
    1.5000    0.0000    0.0000 C   0  0  0  0  0  0  0  0  0  0  0  0
    0.7500    1.2990    0.0000 C   0  0  0  0  0  0  0  0  0  0  0  0
   -0.7500    1.2990    0.0000 C   0  0  0  0  0  0  0  0  0  0  0  0
   -1.5000    2.5981    0.0000 N   0  0  0  0  0  0  0  0  0  0  0  0
   -0.7500    3.8971    0.0000 C   0  0  0  0  0  0  0  0  0  0  0  0
    0.7500    3.8971    0.0000 N   0  0  0  0  0  0  0  0  0  0  0  0
    1.5000    5.1962    0.0000 C   0  0  0  0  0  0  0  0  0  0  0  0
    0.7500    6.4952    0.0000 C   0  0  0  0  0  0  0  0  0  0  0  0
   -0.7500    6.4952    0.0000 C   0  0  0  0  0  0  0  0  0  0  0  0
   -1.5000    7.7942    0.0000 C   0  0  0  0  0  0  0  0  0  0  0  0
   -0.7500    9.0933    0.0000 C   0  0  0  0  0  0  0  0  0  0  0  0
   -1.5000   10.3923    0.0000 C   0  0  0  0  0  0  0  0  0  0  0  0
   -3.0000   10.3923    0.0000 C   0  0  0  0  0  0  0  0  0  0  0  0
   -3.7500    9.0933    0.0000 C   0  0  0  0  0  0  0  0  0  0  0  0
   -3.0000    7.7942    0.0000 N   0  0  0  0  0  0  0  0  0  0  0  0
   -1.5000    5.1962    0.0000 N   0  0  0  0  0  0  0  0  0  0  0  0
   -1.5000    0.0000    0.0000 C   0  0  0  0  0  0  0  0  0  0  0  0
   -0.7500   -1.2990    0.0000 C   0  0  0  0  0  0  0  0  0  0  0  0
   -1.2135   -2.7256    0.0000 S   0  0  0  0  0  0  0  0  0  0  0  0
  1  2  1  0
  2  3  2  0
  3  4  1  0
  4  5  2  0
  5  6  1  0
  6  7  2  0
  7  8  1  0
  8  9  1  0
  9 10  2  0
 10 11  1  0
 11 12  2  0
 12 13  1  0
 13 14  1  0
 14 15  2  0
 15 16  1  0
 16 17  2  0
 17 18  1  0
 18 19  2  0
 13 20  2  0
  7 21  1  0
 21 22  2  0
 22 23  1  0
 23  2  1  0
 22  4  1  0
 20  9  1  0
 19 14  1  0
M  END
>  <Compound_ID>  (126) 
CHEMBL3643727

>  <Molecule Name>  (126) 
nan

>  <Molecular Weight>  (126) 
320.38

>  <AlogP>  (126) 
3.47

>  <Smiles>  (126) 
Nc1nc2ccc(Nc3nccc(-c4ccccn4)n3)cc2s1

>  <Standard Type>  (126) 
IC50

>  <Standard Relation>  (126) 
'='

>  <Standard Units>  (126) 
nM

>  <Standard Value>  (126) 
92.3

>  <Assay ChEMBL ID>  (126) 
CHEMBL3705803

>  <Assay Description>  (126) 
Kinase Glo Luminescence Kinase Assay: Recombinant human Syk (amino acids 342-635) was expressed as a fusion protein with an N-terminal GST tag, affinity-purified and deep-frozen at a concentration of approx. 50-100 uM in test buffer (25 mM HEPES pH7.5; 25 mM MgCl2; 5 mM MnCl2; 50 mM KCl; 0.2% BSA; 0.01% CHAPS; 100 uM Na3VO4; 0.5 mM DTT) and 10% glycerol at -80 C until use. The catalytic activity of the GST-Syk kinase fusion protein was determined using the Kinase Glo Luminescence Kinase test (Promega; V6712). In this homogeneous test the amount of ATP remaining after the kinase reaction is quantified by a luciferin-luciferase reaction using luminescence. The luminescence signal obtained correlates with the amount of ATP still present and thus correlates inversely with the activity of the protein kinase. The test compounds were dissolved in 100% DMSO at a concentration of 10 mM and diluted in DMSO to a concentration of 1 mM.

>  <BAO Format ID>  (126) 
BAO_0000357

>  <BAO Label>  (126) 
single protein format

>  <Assay Organism>  (126) 
Homo sapiens

>  <Target ChEMBL ID>  (126) 
CHEMBL2599

>  <Target Name>  (126) 
Tyrosine-protein kinase SYK

>  <Target Organism>  (126) 
Homo sapiens

>  <Target Type>  (126) 
SINGLE PROTEIN

>  <Document ChEMBL ID>  (126) 
CHEMBL3638486

>  <Source Description>  (126) 
BindingDB Database

>  <Document Journal>  (126) 
nan

>  <Document Year>  (126) 
2014.0

>  <Active>  (126) 
1.0

>  <bits>  (126) 
<rdkit.DataStructs.cDataStructs.ExplicitBitVect object at 0x00000193F34054D0>

>  <Group>  (126) 
G2

$$$$

     RDKit          2D

 29 32  0  0  0  0  0  0  0  0999 V2000
   -7.5000   -7.7942    0.0000 C   0  0  0  0  0  0  0  0  0  0  0  0
   -6.0000   -7.7942    0.0000 O   0  0  0  0  0  0  0  0  0  0  0  0
   -5.2500   -6.4952    0.0000 C   0  0  0  0  0  0  0  0  0  0  0  0
   -6.0000   -5.1962    0.0000 C   0  0  0  0  0  0  0  0  0  0  0  0
   -5.2500   -3.8971    0.0000 C   0  0  0  0  0  0  0  0  0  0  0  0
   -3.7500   -3.8971    0.0000 N   0  0  0  0  0  0  0  0  0  0  0  0
   -3.0000   -5.1962    0.0000 C   0  0  0  0  0  0  0  0  0  0  0  0
   -1.5000   -5.1962    0.0000 C   0  0  0  0  0  0  0  0  0  0  0  0
   -0.7500   -6.4952    0.0000 C   0  0  0  0  0  0  0  0  0  0  0  0
    0.7500   -6.4952    0.0000 C   0  0  0  0  0  0  0  0  0  0  0  0
    1.5000   -5.1962    0.0000 N   0  0  0  0  0  0  0  0  0  0  0  0
    0.7500   -3.8971    0.0000 C   0  0  0  0  0  0  0  0  0  0  0  0
    1.5000   -2.5981    0.0000 N   0  0  0  0  0  0  0  0  0  0  0  0
    0.7500   -1.2990    0.0000 C   0  0  0  0  0  0  0  0  0  0  0  0
    1.5000    0.0000    0.0000 C   0  0  0  0  0  0  0  0  0  0  0  0
    0.7500    1.2990    0.0000 C   0  0  0  0  0  0  0  0  0  0  0  0
   -0.7500    1.2990    0.0000 C   0  0  0  0  0  0  0  0  0  0  0  0
   -1.7537    2.4138    0.0000 S   0  0  0  0  0  0  0  0  0  0  0  0
   -3.1240    1.8037    0.0000 C   0  0  0  0  0  0  0  0  0  0  0  0
   -4.4231    2.5537    0.0000 C   0  0  0  0  0  0  0  0  0  0  0  0
   -5.7221    1.8037    0.0000 O   0  0  0  0  0  0  0  0  0  0  0  0
   -4.4231    4.0537    0.0000 N   0  0  0  0  0  0  0  0  0  0  0  0
   -5.7221    4.8037    0.0000 C   0  0  0  0  0  0  0  0  0  0  0  0
   -3.1240    4.8037    0.0000 C   0  0  0  0  0  0  0  0  0  0  0  0
   -2.9672    0.3119    0.0000 C   0  0  0  0  0  0  0  0  0  0  0  0
   -1.5000    0.0000    0.0000 C   0  0  0  0  0  0  0  0  0  0  0  0
   -0.7500   -1.2990    0.0000 C   0  0  0  0  0  0  0  0  0  0  0  0
   -0.7500   -3.8971    0.0000 N   0  0  0  0  0  0  0  0  0  0  0  0
   -3.7500   -6.4952    0.0000 C   0  0  0  0  0  0  0  0  0  0  0  0
  1  2  1  0
  2  3  1  0
  3  4  2  0
  4  5  1  0
  5  6  2  0
  6  7  1  0
  7  8  1  0
  8  9  2  0
  9 10  1  0
 10 11  2  0
 11 12  1  0
 12 13  1  0
 13 14  1  0
 14 15  2  0
 15 16  1  0
 16 17  2  0
 17 18  1  0
 18 19  1  0
 19 20  1  0
 20 21  2  0
 20 22  1  0
 22 23  1  0
 22 24  1  0
 19 25  2  0
 25 26  1  0
 26 27  2  0
 12 28  2  0
  7 29  2  0
 29  3  1  0
 28  8  1  0
 27 14  1  0
 26 17  1  0
M  END
>  <Compound_ID>  (127) 
CHEMBL3641563

>  <Molecule Name>  (127) 
nan

>  <Molecular Weight>  (127) 
405.48

>  <AlogP>  (127) 
4.21

>  <Smiles>  (127) 
COc1ccnc(-c2ccnc(Nc3ccc4sc(C(=O)N(C)C)cc4c3)n2)c1

>  <Standard Type>  (127) 
IC50

>  <Standard Relation>  (127) 
'='

>  <Standard Units>  (127) 
nM

>  <Standard Value>  (127) 
15.4

>  <Assay ChEMBL ID>  (127) 
CHEMBL3705803

>  <Assay Description>  (127) 
Kinase Glo Luminescence Kinase Assay: Recombinant human Syk (amino acids 342-635) was expressed as a fusion protein with an N-terminal GST tag, affinity-purified and deep-frozen at a concentration of approx. 50-100 uM in test buffer (25 mM HEPES pH7.5; 25 mM MgCl2; 5 mM MnCl2; 50 mM KCl; 0.2% BSA; 0.01% CHAPS; 100 uM Na3VO4; 0.5 mM DTT) and 10% glycerol at -80 C until use. The catalytic activity of the GST-Syk kinase fusion protein was determined using the Kinase Glo Luminescence Kinase test (Promega; V6712). In this homogeneous test the amount of ATP remaining after the kinase reaction is quantified by a luciferin-luciferase reaction using luminescence. The luminescence signal obtained correlates with the amount of ATP still present and thus correlates inversely with the activity of the protein kinase. The test compounds were dissolved in 100% DMSO at a concentration of 10 mM and diluted in DMSO to a concentration of 1 mM.

>  <BAO Format ID>  (127) 
BAO_0000357

>  <BAO Label>  (127) 
single protein format

>  <Assay Organism>  (127) 
Homo sapiens

>  <Target ChEMBL ID>  (127) 
CHEMBL2599

>  <Target Name>  (127) 
Tyrosine-protein kinase SYK

>  <Target Organism>  (127) 
Homo sapiens

>  <Target Type>  (127) 
SINGLE PROTEIN

>  <Document ChEMBL ID>  (127) 
CHEMBL3638486

>  <Source Description>  (127) 
BindingDB Database

>  <Document Journal>  (127) 
nan

>  <Document Year>  (127) 
2014.0

>  <Active>  (127) 
1.0

>  <bits>  (127) 
<rdkit.DataStructs.cDataStructs.ExplicitBitVect object at 0x00000193F3405000>

>  <Group>  (127) 
G2

$$$$

     RDKit          2D

 49 56  0  0  0  0  0  0  0  0999 V2000
  -12.9738   -1.2059    0.0000 C   0  0  0  0  0  0  0  0  0  0  0  0
  -11.5066   -0.8941    0.0000 O   0  0  0  0  0  0  0  0  0  0  0  0
  -10.5029   -2.0088    0.0000 C   0  0  0  0  0  0  0  0  0  0  0  0
  -10.9664   -3.4354    0.0000 C   0  0  0  0  0  0  0  0  0  0  0  0
   -9.9627   -4.5501    0.0000 C   0  0  0  0  0  0  0  0  0  0  0  0
   -8.4955   -4.2382    0.0000 C   0  0  0  0  0  0  0  0  0  0  0  0
   -7.4918   -5.3529    0.0000 N   0  0  0  0  0  0  0  0  0  0  0  0
   -7.8037   -6.8202    0.0000 N   0  0  0  0  0  0  0  0  0  0  0  0
   -6.5046   -7.5702    0.0000 C   0  0  0  0  0  0  0  0  0  0  0  0
   -6.3478   -9.0619    0.0000 C   0  0  0  0  0  0  0  0  0  0  0  0
   -7.4625  -10.0656    0.0000 C   0  0  0  0  0  0  0  0  0  0  0  0
   -6.8524  -11.4360    0.0000 C   0  0  0  0  0  0  0  0  0  0  0  0
   -5.3606  -11.2792    0.0000 O   0  0  0  0  0  0  0  0  0  0  0  0
   -5.0488   -9.8119    0.0000 C   0  0  0  0  0  0  0  0  0  0  0  0
   -5.3899   -6.5665    0.0000 C   0  0  0  0  0  0  0  0  0  0  0  0
   -6.0000   -5.1962    0.0000 C   0  0  0  0  0  0  0  0  0  0  0  0
   -5.2500   -3.8971    0.0000 N   0  0  0  0  0  0  0  0  0  0  0  0
   -3.7500   -3.8971    0.0000 C   0  0  0  0  0  0  0  0  0  0  0  0
   -3.0000   -5.1962    0.0000 O   0  0  0  0  0  0  0  0  0  0  0  0
   -3.0000   -2.5981    0.0000 N   0  0  0  0  0  0  0  0  0  0  0  0
   -1.5000   -2.5981    0.0000 C   0  0  0  0  0  0  0  0  0  0  0  0
   -0.7500   -3.8971    0.0000 C   0  0  0  0  0  0  0  0  0  0  0  0
    0.7500   -3.8971    0.0000 C   0  0  0  0  0  0  0  0  0  0  0  0
    1.5000   -2.5981    0.0000 C   0  0  0  0  0  0  0  0  0  0  0  0
    3.0000   -2.5981    0.0000 O   0  0  0  0  0  0  0  0  0  0  0  0
    3.7500   -3.8971    0.0000 C   0  0  0  0  0  0  0  0  0  0  0  0
    3.0000   -5.1962    0.0000 C   0  0  0  0  0  0  0  0  0  0  0  0
    3.7500   -6.4952    0.0000 C   0  0  0  0  0  0  0  0  0  0  0  0
    5.2500   -6.4952    0.0000 N   0  0  0  0  0  0  0  0  0  0  0  0
    6.0000   -5.1962    0.0000 C   0  0  0  0  0  0  0  0  0  0  0  0
    7.5000   -5.1962    0.0000 N   0  0  0  0  0  0  0  0  0  0  0  0
    8.2500   -6.4952    0.0000 C   0  0  0  0  0  0  0  0  0  0  0  0
    7.5000   -7.7942    0.0000 C   0  0  0  0  0  0  0  0  0  0  0  0
    8.2500   -9.0933    0.0000 C   0  0  0  0  0  0  0  0  0  0  0  0
    9.7500   -9.0933    0.0000 C   0  0  0  0  0  0  0  0  0  0  0  0
   10.7537  -10.2080    0.0000 N   0  0  0  0  0  0  0  0  0  0  0  0
   12.1240   -9.5979    0.0000 N   0  0  0  0  0  0  0  0  0  0  0  0
   11.9672   -8.1061    0.0000 C   0  0  0  0  0  0  0  0  0  0  0  0
   10.5000   -7.7942    0.0000 C   0  0  0  0  0  0  0  0  0  0  0  0
    9.7500   -6.4952    0.0000 C   0  0  0  0  0  0  0  0  0  0  0  0
    5.2500   -3.8971    0.0000 N   0  0  0  0  0  0  0  0  0  0  0  0
    0.7500   -1.2990    0.0000 C   0  0  0  0  0  0  0  0  0  0  0  0
    1.5000    0.0000    0.0000 C   0  0  0  0  0  0  0  0  0  0  0  0
    0.7500    1.2990    0.0000 C   0  0  0  0  0  0  0  0  0  0  0  0
   -0.7500    1.2990    0.0000 C   0  0  0  0  0  0  0  0  0  0  0  0
   -1.5000    0.0000    0.0000 C   0  0  0  0  0  0  0  0  0  0  0  0
   -0.7500   -1.2990    0.0000 C   0  0  0  0  0  0  0  0  0  0  0  0
   -8.0320   -2.8116    0.0000 C   0  0  0  0  0  0  0  0  0  0  0  0
   -9.0356   -1.6969    0.0000 C   0  0  0  0  0  0  0  0  0  0  0  0
  1  2  1  0
  2  3  1  0
  3  4  2  0
  4  5  1  0
  5  6  2  0
  6  7  1  0
  7  8  1  0
  8  9  2  0
  9 10  1  0
 10 11  1  0
 11 12  1  0
 12 13  1  0
 13 14  1  0
  9 15  1  0
 15 16  2  0
 16 17  1  0
 17 18  1  0
 18 19  2  0
 18 20  1  0
 20 21  1  0
 21 22  2  0
 22 23  1  0
 23 24  2  0
 24 25  1  0
 25 26  1  0
 26 27  2  0
 27 28  1  0
 28 29  2  0
 29 30  1  0
 30 31  1  0
 31 32  1  0
 32 33  2  0
 33 34  1  0
 34 35  2  0
 35 36  1  0
 36 37  1  0
 37 38  2  0
 38 39  1  0
 39 40  2  0
 30 41  2  0
 24 42  1  0
 42 43  2  0
 43 44  1  0
 44 45  2  0
 45 46  1  0
 46 47  2  0
  6 48  1  0
 48 49  2  0
 49  3  1  0
 16  7  1  0
 47 21  1  0
 14 10  1  0
 41 26  1  0
 47 42  1  0
 40 32  1  0
 39 35  1  0
M  END
>  <Compound_ID>  (128) 
CHEMBL3921479

>  <Molecule Name>  (128) 
nan

>  <Molecular Weight>  (128) 
653.7

>  <AlogP>  (128) 
7.38

>  <Smiles>  (128) 
COc1ccc(-n2nc(C3CCOC3)cc2NC(=O)Nc2ccc(Oc3ccnc(Nc4ccc5[nH]ncc5c4)n3)c3ccccc23)cc1

>  <Standard Type>  (128) 
IC50

>  <Standard Relation>  (128) 
'='

>  <Standard Units>  (128) 
nM

>  <Standard Value>  (128) 
8.0

>  <Assay ChEMBL ID>  (128) 
CHEMBL3887920

>  <Assay Description>  (128) 
c-Src and Syk Enzyme Inhibition Assay: The inhibitory activities of compounds of the invention against c-Src and Syk enzymes (Invitrogen), are evaluated in a similar fashion to that described hereinabove. The relevant enzyme (3000 ng/mL or 2000 ng/mL respectively, 2.5 uL) is incubated with the test compound (either 4 ug/mL, 0.4 ug/mL, 0.04 ug/mL, or 0.004 ug/mL, 2.5 uL each) for 2 hr at RT. The FRET peptides (8 uM, 2.5 uL), and appropriate ATP solutions (2.5 uL, 800 uM for c-Src, and 60 uM ATP for Syk) are then added to the enzymes/compound mixtures and incubated for 1 hr. Development reagent (protease, 5 uL) is added for 1 hr prior to detection in a fluorescence microplate reader (Varioskan Flash, ThermoFisher Scientific).

>  <BAO Format ID>  (128) 
BAO_0000357

>  <BAO Label>  (128) 
single protein format

>  <Assay Organism>  (128) 
Homo sapiens

>  <Target ChEMBL ID>  (128) 
CHEMBL2599

>  <Target Name>  (128) 
Tyrosine-protein kinase SYK

>  <Target Organism>  (128) 
Homo sapiens

>  <Target Type>  (128) 
SINGLE PROTEIN

>  <Document ChEMBL ID>  (128) 
CHEMBL3886505

>  <Source Description>  (128) 
BindingDB Database

>  <Document Journal>  (128) 
nan

>  <Document Year>  (128) 
2016.0

>  <Active>  (128) 
1.0

>  <bits>  (128) 
<rdkit.DataStructs.cDataStructs.ExplicitBitVect object at 0x00000193F34044A0>

>  <Group>  (128) 
G2

$$$$

     RDKit          2D

 31 33  0  0  0  0  0  0  0  0999 V2000
    3.0000    0.0000    0.0000 C   0  0  0  0  0  0  0  0  0  0  0  0
    1.5000    0.0000    0.0000 C   0  0  0  0  0  0  0  0  0  0  0  0
    0.7500   -1.2990    0.0000 C   0  0  0  0  0  0  0  0  0  0  0  0
   -0.7500   -1.2990    0.0000 C   0  0  0  0  0  0  0  0  0  0  0  0
   -1.5000   -2.5981    0.0000 N   0  0  0  0  0  0  0  0  0  0  0  0
   -3.0000   -2.5981    0.0000 C   0  0  0  0  0  0  0  0  0  0  0  0
   -3.7500   -1.2990    0.0000 C   0  0  0  0  0  0  0  0  0  0  0  0
   -5.2500   -1.2990    0.0000 C   0  0  0  0  0  0  0  0  0  0  0  0
   -6.0000    0.0000    0.0000 C   0  0  0  0  0  0  0  0  0  0  0  0
   -4.7010    0.7500    0.0000 C   0  0  0  0  0  0  0  0  0  0  0  0
   -7.2990   -0.7500    0.0000 C   0  0  0  0  0  0  0  0  0  0  0  0
   -6.7500    1.2990    0.0000 C   0  0  0  0  0  0  0  0  0  0  0  0
   -6.0000   -2.5981    0.0000 C   0  0  0  0  0  0  0  0  0  0  0  0
   -5.2500   -3.8971    0.0000 C   0  0  0  0  0  0  0  0  0  0  0  0
   -3.7500   -3.8971    0.0000 N   0  0  0  0  0  0  0  0  0  0  0  0
   -1.5000    0.0000    0.0000 N   0  0  0  0  0  0  0  0  0  0  0  0
   -0.7500    1.2990    0.0000 C   0  0  0  0  0  0  0  0  0  0  0  0
   -1.5000    2.5981    0.0000 C   0  0  0  0  0  0  0  0  0  0  0  0
   -0.7500    3.8971    0.0000 C   0  0  0  0  0  0  0  0  0  0  0  0
   -1.5000    5.1962    0.0000 C   0  0  0  0  0  0  0  0  0  0  0  0
   -3.0000    5.1962    0.0000 C   0  0  0  0  0  0  0  0  0  0  0  0
   -3.7500    6.4952    0.0000 N   0  0  0  0  0  0  0  0  0  0  0  0
   -3.0000    7.7942    0.0000 C   0  0  0  0  0  0  0  0  0  0  0  0
   -4.2990    8.5442    0.0000 C   0  0  0  0  0  0  0  0  0  0  0  0
   -1.7010    7.0442    0.0000 C   0  0  0  0  0  0  0  0  0  0  0  0
   -2.2500    9.0933    0.0000 C   0  0  0  0  0  0  0  0  0  0  0  0
   -3.0000   10.3923    0.0000 O   0  0  0  0  0  0  0  0  0  0  0  0
   -0.7500    9.0933    0.0000 O   0  0  0  0  0  0  0  0  0  0  0  0
   -3.7500    3.8971    0.0000 N   0  0  0  0  0  0  0  0  0  0  0  0
   -3.0000    2.5981    0.0000 C   0  0  0  0  0  0  0  0  0  0  0  0
    0.7500    1.2990    0.0000 C   0  0  0  0  0  0  0  0  0  0  0  0
  1  2  1  0
  2  3  2  0
  3  4  1  0
  4  5  1  0
  5  6  1  0
  6  7  2  0
  7  8  1  0
  8  9  1  0
  9 10  1  0
  9 11  1  0
  9 12  1  0
  8 13  2  0
 13 14  1  0
 14 15  2  0
  4 16  2  0
 16 17  1  0
 17 18  1  0
 18 19  2  0
 19 20  1  0
 20 21  2  0
 21 22  1  0
 22 23  1  0
 23 24  1  0
 23 25  1  0
 23 26  1  0
 26 27  2  0
 26 28  1  0
 21 29  1  0
 29 30  2  0
 17 31  2  0
 31  2  1  0
 15  6  1  0
 30 18  1  0
M  END
>  <Compound_ID>  (129) 
CHEMBL3985715

>  <Molecule Name>  (129) 
nan

>  <Molecular Weight>  (129) 
419.53

>  <AlogP>  (129) 
5.16

>  <Smiles>  (129) 
Cc1cc(Nc2cc(C(C)(C)C)ccn2)nc(-c2ccc(NC(C)(C)C(=O)O)nc2)c1

>  <Standard Type>  (129) 
IC50

>  <Standard Relation>  (129) 
'='

>  <Standard Units>  (129) 
nM

>  <Standard Value>  (129) 
16.0

>  <Assay ChEMBL ID>  (129) 
CHEMBL3887083

>  <Assay Description>  (129) 
Homogeneous Time-Resolved Fluorescence (HTRF) Assay: A recombinant GST-hSyk fusion protein was used to measure potency of compounds to inhibit human Syk activity. The recombinant human GST-Syk (Carna Biosciences #08-176) (5 pM final concentration) was incubated with various concentrations of the inhibitor diluted in DMSO (0.1% final concentration) for 10 minutes at room temperature in 15 mM Tris-HCl (pH 7.5), 0.01% tween 20, 2 mM DTT in 384 well plate format. To initiate the reaction the biotinylated substrate peptide (250 nM final concentration) that contains the phosphorylation site for Syk was added with magnesium (5 mM final concentration) and ATP (25 uM final concentration). Final volume of the reaction was 10 uL. Phosphorylation of the peptide was allowed to proceed for 45x at room temperature. To quench the reaction and detect the phosphorylated product, 2 nM of a Europium-anti-phosphotyrosine antibody (Perkin Elmer #AD0161) and 70 nM SA-APC (Perkin-Elmer #CR130-100) were added together in 15 mM Tris pH 7.5.

>  <BAO Format ID>  (129) 
BAO_0000357

>  <BAO Label>  (129) 
single protein format

>  <Assay Organism>  (129) 
Homo sapiens

>  <Target ChEMBL ID>  (129) 
CHEMBL2599

>  <Target Name>  (129) 
Tyrosine-protein kinase SYK

>  <Target Organism>  (129) 
Homo sapiens

>  <Target Type>  (129) 
SINGLE PROTEIN

>  <Document ChEMBL ID>  (129) 
CHEMBL3886158

>  <Source Description>  (129) 
BindingDB Database

>  <Document Journal>  (129) 
nan

>  <Document Year>  (129) 
2015.0

>  <Active>  (129) 
1.0

>  <bits>  (129) 
<rdkit.DataStructs.cDataStructs.ExplicitBitVect object at 0x00000193F34067A0>

>  <Group>  (129) 
G2

$$$$

     RDKit          2D

 36 39  0  0  0  0  0  0  0  0999 V2000
    3.0000    0.0000    0.0000 C   0  0  0  0  0  0  0  0  0  0  0  0
    1.5000    0.0000    0.0000 C   0  0  0  0  0  0  0  0  0  0  0  0
    0.7500   -1.2990    0.0000 C   0  0  0  0  0  0  0  0  0  0  0  0
   -0.7500   -1.2990    0.0000 C   0  0  0  0  0  0  0  0  0  0  0  0
   -1.5000   -2.5981    0.0000 N   0  0  0  0  0  0  0  0  0  0  0  0
   -3.0000   -2.5981    0.0000 C   0  0  0  0  0  0  0  0  0  0  0  0
   -3.7500   -1.2990    0.0000 C   0  0  0  0  0  0  0  0  0  0  0  0
   -5.2500   -1.2990    0.0000 C   0  0  0  0  0  0  0  0  0  0  0  0
   -6.0000    0.0000    0.0000 C   0  0  0  0  0  0  0  0  0  0  0  0
   -5.2500    1.2990    0.0000 F   0  0  0  0  0  0  0  0  0  0  0  0
   -7.5000    0.0000    0.0000 F   0  0  0  0  0  0  0  0  0  0  0  0
   -6.0000   -2.5981    0.0000 C   0  0  0  0  0  0  0  0  0  0  0  0
   -5.2500   -3.8971    0.0000 C   0  0  0  0  0  0  0  0  0  0  0  0
   -3.7500   -3.8971    0.0000 N   0  0  0  0  0  0  0  0  0  0  0  0
   -1.5000    0.0000    0.0000 N   0  0  0  0  0  0  0  0  0  0  0  0
   -0.7500    1.2990    0.0000 C   0  0  0  0  0  0  0  0  0  0  0  0
   -1.5000    2.5981    0.0000 C   0  0  0  0  0  0  0  0  0  0  0  0
   -0.7500    3.8971    0.0000 C   0  0  0  0  0  0  0  0  0  0  0  0
   -1.5000    5.1962    0.0000 C   0  0  0  0  0  0  0  0  0  0  0  0
   -3.0000    5.1962    0.0000 C   0  0  0  0  0  0  0  0  0  0  0  0
   -3.7500    6.4952    0.0000 C   0  0  0  0  0  0  0  0  0  0  0  0
   -5.0490    5.7452    0.0000 C   0  0  0  0  0  0  0  0  0  0  0  0
   -4.5000    7.7942    0.0000 O   0  0  0  0  0  0  0  0  0  0  0  0
   -2.4510    7.2452    0.0000 C   0  0  0  0  0  0  0  0  0  0  0  0
   -1.1519    6.4952    0.0000 C   0  0  0  0  0  0  0  0  0  0  0  0
    0.1471    7.2452    0.0000 C   0  0  0  0  0  0  0  0  0  0  0  0
    0.1471    8.7452    0.0000 C   0  0  0  0  0  0  0  0  0  0  0  0
    1.4462    9.4952    0.0000 C   0  0  0  0  0  0  0  0  0  0  0  0
    1.4462   10.9952    0.0000 O   0  0  0  0  0  0  0  0  0  0  0  0
    2.7452    8.7452    0.0000 O   0  0  0  0  0  0  0  0  0  0  0  0
   -1.1519    9.4952    0.0000 C   0  0  0  0  0  0  0  0  0  0  0  0
   -2.4510    8.7452    0.0000 C   0  0  0  0  0  0  0  0  0  0  0  0
   -3.7500    3.8971    0.0000 N   0  0  0  0  0  0  0  0  0  0  0  0
   -3.0000    2.5981    0.0000 C   0  0  0  0  0  0  0  0  0  0  0  0
    0.7500    1.2990    0.0000 C   0  0  0  0  0  0  0  0  0  0  0  0
    1.5000    2.5981    0.0000 Br  0  0  0  0  0  0  0  0  0  0  0  0
  1  2  1  0
  2  3  2  0
  3  4  1  0
  4  5  1  0
  5  6  1  0
  6  7  2  0
  7  8  1  0
  8  9  1  0
  9 10  1  0
  9 11  1  0
  8 12  2  0
 12 13  1  0
 13 14  2  0
  4 15  2  0
 15 16  1  0
 16 17  1  0
 17 18  2  0
 18 19  1  0
 19 20  2  0
 20 21  1  0
 21 22  1  0
 21 23  1  0
 24 21  1  6
 24 25  1  0
 25 26  1  0
 26 27  1  0
 27 28  1  1
 28 29  2  0
 28 30  1  0
 27 31  1  0
 31 32  1  0
 20 33  1  0
 33 34  2  0
 16 35  2  0
 35 36  1  0
 35  2  1  0
 14  6  1  0
 34 17  1  0
 32 24  1  0
M  END
>  <Compound_ID>  (130) 
CHEMBL3955380

>  <Molecule Name>  (130) 
nan

>  <Molecular Weight>  (130) 
561.43

>  <AlogP>  (130) 
6.39

>  <Smiles>  (130) 
Cc1cc(Nc2cc(C(F)F)ccn2)nc(-c2ccc(C(C)(O)[C@H]3CC[C@H](C(=O)O)CC3)nc2)c1Br

>  <Standard Type>  (130) 
IC50

>  <Standard Relation>  (130) 
'='

>  <Standard Units>  (130) 
nM

>  <Standard Value>  (130) 
1.0

>  <Assay ChEMBL ID>  (130) 
CHEMBL3887083

>  <Assay Description>  (130) 
Homogeneous Time-Resolved Fluorescence (HTRF) Assay: A recombinant GST-hSyk fusion protein was used to measure potency of compounds to inhibit human Syk activity. The recombinant human GST-Syk (Carna Biosciences #08-176) (5 pM final concentration) was incubated with various concentrations of the inhibitor diluted in DMSO (0.1% final concentration) for 10 minutes at room temperature in 15 mM Tris-HCl (pH 7.5), 0.01% tween 20, 2 mM DTT in 384 well plate format. To initiate the reaction the biotinylated substrate peptide (250 nM final concentration) that contains the phosphorylation site for Syk was added with magnesium (5 mM final concentration) and ATP (25 uM final concentration). Final volume of the reaction was 10 uL. Phosphorylation of the peptide was allowed to proceed for 45x at room temperature. To quench the reaction and detect the phosphorylated product, 2 nM of a Europium-anti-phosphotyrosine antibody (Perkin Elmer #AD0161) and 70 nM SA-APC (Perkin-Elmer #CR130-100) were added together in 15 mM Tris pH 7.5.

>  <BAO Format ID>  (130) 
BAO_0000357

>  <BAO Label>  (130) 
single protein format

>  <Assay Organism>  (130) 
Homo sapiens

>  <Target ChEMBL ID>  (130) 
CHEMBL2599

>  <Target Name>  (130) 
Tyrosine-protein kinase SYK

>  <Target Organism>  (130) 
Homo sapiens

>  <Target Type>  (130) 
SINGLE PROTEIN

>  <Document ChEMBL ID>  (130) 
CHEMBL3886158

>  <Source Description>  (130) 
BindingDB Database

>  <Document Journal>  (130) 
nan

>  <Document Year>  (130) 
2015.0

>  <Active>  (130) 
1.0

>  <bits>  (130) 
<rdkit.DataStructs.cDataStructs.ExplicitBitVect object at 0x00000193F3404B30>

>  <Group>  (130) 
G2

$$$$

     RDKit          2D

 30 34  0  0  0  0  0  0  0  0999 V2000
   -2.6401   -3.1891    0.0000 C   0  0  0  0  0  0  0  0  0  0  0  0
   -1.2135   -2.7256    0.0000 N   0  0  0  0  0  0  0  0  0  0  0  0
   -0.0000   -3.6073    0.0000 N   0  0  0  0  0  0  0  0  0  0  0  0
    1.2135   -2.7256    0.0000 C   0  0  0  0  0  0  0  0  0  0  0  0
    2.6401   -3.1891    0.0000 C   0  0  0  0  0  0  0  0  0  0  0  0
    3.7548   -2.1855    0.0000 C   0  0  0  0  0  0  0  0  0  0  0  0
    5.1814   -2.6490    0.0000 N   0  0  0  0  0  0  0  0  0  0  0  0
    5.4933   -4.1162    0.0000 C   0  0  0  0  0  0  0  0  0  0  0  0
    6.7923   -4.8662    0.0000 N   0  0  0  0  0  0  0  0  0  0  0  0
    6.4805   -6.3334    0.0000 C   0  0  0  0  0  0  0  0  0  0  0  0
    4.9887   -6.4902    0.0000 C   0  0  0  0  0  0  0  0  0  0  0  0
    4.2387   -7.7893    0.0000 C   0  0  0  0  0  0  0  0  0  0  0  0
    2.7387   -7.7893    0.0000 O   0  0  0  0  0  0  0  0  0  0  0  0
    4.9887   -9.0883    0.0000 N   0  0  0  0  0  0  0  0  0  0  0  0
    4.2387  -10.3873    0.0000 C   0  0  0  0  0  0  0  0  0  0  0  0
    2.7387  -10.3873    0.0000 C   0  0  0  0  0  0  0  0  0  0  0  0
    1.9887  -11.6864    0.0000 O   0  0  0  0  0  0  0  0  0  0  0  0
    2.7387  -12.9854    0.0000 C   0  0  0  0  0  0  0  0  0  0  0  0
    4.2387  -12.9854    0.0000 C   0  0  0  0  0  0  0  0  0  0  0  0
    4.9887  -14.2844    0.0000 N   0  0  0  0  0  0  0  0  0  0  0  0
    4.9887  -11.6864    0.0000 C   0  0  0  0  0  0  0  0  0  0  0  0
    4.3786   -5.1199    0.0000 C   0  0  0  0  0  0  0  0  0  0  0  0
    2.9520   -4.6564    0.0000 N   0  0  0  0  0  0  0  0  0  0  0  0
    0.7500   -1.2990    0.0000 C   0  0  0  0  0  0  0  0  0  0  0  0
    1.5000    0.0000    0.0000 C   0  0  0  0  0  0  0  0  0  0  0  0
    0.7500    1.2990    0.0000 C   0  0  0  0  0  0  0  0  0  0  0  0
   -0.7500    1.2990    0.0000 C   0  0  0  0  0  0  0  0  0  0  0  0
   -1.5000    2.5981    0.0000 F   0  0  0  0  0  0  0  0  0  0  0  0
   -1.5000    0.0000    0.0000 C   0  0  0  0  0  0  0  0  0  0  0  0
   -0.7500   -1.2990    0.0000 C   0  0  0  0  0  0  0  0  0  0  0  0
  1  2  1  0
  2  3  1  0
  3  4  2  0
  4  5  1  0
  5  6  2  0
  6  7  1  0
  7  8  2  0
  8  9  1  0
  9 10  1  0
 10 11  2  0
 11 12  1  0
 12 13  2  0
 12 14  1  0
 15 14  1  6
 15 16  1  0
 16 17  1  0
 17 18  1  0
 18 19  1  0
 19 20  1  6
 19 21  1  0
 11 22  1  0
 22 23  2  0
  4 24  1  0
 24 25  2  0
 25 26  1  0
 26 27  2  0
 27 28  1  0
 27 29  1  0
 29 30  2  0
 30  2  1  0
 23  5  1  0
 30 24  1  0
 22  8  1  0
 21 15  1  0
M  END
>  <Compound_ID>  (131) 
CHEMBL2347412

>  <Molecule Name>  (131) 
nan

>  <Molecular Weight>  (131) 
409.43

>  <AlogP>  (131) 
1.50

>  <Smiles>  (131) 
Cn1nc(-c2cnc3[nH]cc(C(=O)N[C@H]4COC[C@@H](N)C4)c3n2)c2ccc(F)cc21

>  <Standard Type>  (131) 
IC50

>  <Standard Relation>  (131) 
'='

>  <Standard Units>  (131) 
nM

>  <Standard Value>  (131) 
68.0

>  <Assay ChEMBL ID>  (131) 
CHEMBL2350855

>  <Assay Description>  (131) 
Inhibition of human recombinant truncated SYK (360 to 365 amino acid residues) using N-terminally biotinylated EPEGDYEEVLE peptide as substrate assessed as inhibition of [33P]-ATP incorporation incubated for 10 mins prior to substrate addition measured after 15 mins by scintillation counting

>  <BAO Format ID>  (131) 
BAO_0000357

>  <BAO Label>  (131) 
single protein format

>  <Assay Organism>  (131) 
Homo sapiens

>  <Target ChEMBL ID>  (131) 
CHEMBL2599

>  <Target Name>  (131) 
Tyrosine-protein kinase SYK

>  <Target Organism>  (131) 
Homo sapiens

>  <Target Type>  (131) 
SINGLE PROTEIN

>  <Document ChEMBL ID>  (131) 
CHEMBL2346624

>  <Source Description>  (131) 
Scientific Literature

>  <Document Journal>  (131) 
J Med Chem

>  <Document Year>  (131) 
2013.0

>  <Active>  (131) 
1.0

>  <bits>  (131) 
<rdkit.DataStructs.cDataStructs.ExplicitBitVect object at 0x00000193F3407370>

>  <Group>  (131) 
G2

$$$$

     RDKit          2D

 31 33  0  0  0  0  0  0  0  0999 V2000
    6.0000   -2.5981    0.0000 C   0  0  0  0  0  0  0  0  0  0  0  0
    5.2500   -1.2990    0.0000 C   0  0  0  0  0  0  0  0  0  0  0  0
    3.7500   -1.2990    0.0000 C   0  0  0  0  0  0  0  0  0  0  0  0
    3.0000    0.0000    0.0000 N   0  0  0  0  0  0  0  0  0  0  0  0
    1.5000    0.0000    0.0000 C   0  0  0  0  0  0  0  0  0  0  0  0
    0.7500   -1.2990    0.0000 N   0  0  0  0  0  0  0  0  0  0  0  0
   -0.7500   -1.2990    0.0000 C   0  0  0  0  0  0  0  0  0  0  0  0
   -1.5000   -2.5981    0.0000 C   0  0  0  0  0  0  0  0  0  0  0  0
   -3.0000   -2.5981    0.0000 C   0  0  0  0  0  0  0  0  0  0  0  0
   -3.7500   -3.8971    0.0000 C   0  0  0  0  0  0  0  0  0  0  0  0
   -3.0000   -5.1962    0.0000 C   0  0  0  0  0  0  0  0  0  0  0  0
   -3.7500   -6.4952    0.0000 C   0  0  0  0  0  0  0  0  0  0  0  0
   -2.4510   -7.2452    0.0000 C   0  0  0  0  0  0  0  0  0  0  0  0
   -5.0490   -5.7452    0.0000 C   0  0  0  0  0  0  0  0  0  0  0  0
   -4.5000   -7.7942    0.0000 O   0  0  0  0  0  0  0  0  0  0  0  0
   -1.5000   -5.1962    0.0000 C   0  0  0  0  0  0  0  0  0  0  0  0
   -0.7500   -3.8971    0.0000 C   0  0  0  0  0  0  0  0  0  0  0  0
   -1.5000    0.0000    0.0000 C   0  0  0  0  0  0  0  0  0  0  0  0
   -0.7500    1.2990    0.0000 C   0  0  0  0  0  0  0  0  0  0  0  0
   -1.5000    2.5981    0.0000 N   0  0  0  0  0  0  0  0  0  0  0  0
   -0.7500    3.8971    0.0000 C   0  0  0  0  0  0  0  0  0  0  0  0
    0.7500    3.8971    0.0000 N   0  0  0  0  0  0  0  0  0  0  0  0
    1.5000    5.1962    0.0000 C   0  0  0  0  0  0  0  0  0  0  0  0
    1.5000    2.5981    0.0000 C   0  0  0  0  0  0  0  0  0  0  0  0
    3.0000    2.5981    0.0000 O   0  0  0  0  0  0  0  0  0  0  0  0
    0.7500    1.2990    0.0000 C   0  0  0  0  0  0  0  0  0  0  0  0
    6.0000    0.0000    0.0000 N   0  0  0  0  0  0  0  0  0  0  0  0
    7.5000   -0.0000    0.0000 S   0  0  0  0  0  0  0  0  0  0  0  0
    9.0000   -0.0000    0.0000 C   0  0  0  0  0  0  0  0  0  0  0  0
    7.5000   -1.5000    0.0000 O   0  0  0  0  0  0  0  0  0  0  0  0
    7.5000    1.5000    0.0000 O   0  0  0  0  0  0  0  0  0  0  0  0
  2  1  1  1
  2  3  1  0
  3  4  1  0
  4  5  1  0
  5  6  2  0
  6  7  1  0
  7  8  1  0
  8  9  2  0
  9 10  1  0
 10 11  2  0
 11 12  1  0
 12 13  1  0
 12 14  1  0
 12 15  1  0
 11 16  1  0
 16 17  2  0
  7 18  2  0
 18 19  1  0
 19 20  1  0
 20 21  2  0
 21 22  1  0
 22 23  1  0
 22 24  1  0
 24 25  2  0
 24 26  1  0
  2 27  1  0
 27 28  1  0
 28 29  1  0
 28 30  2  0
 28 31  2  0
 26  5  1  0
 17  8  1  0
 26 19  2  0
M  END
>  <Compound_ID>  (132) 
CHEMBL3701604

>  <Molecule Name>  (132) 
nan

>  <Molecular Weight>  (132) 
445.55

>  <AlogP>  (132) 
1.57

>  <Smiles>  (132) 
C[C@@H](CNc1nc(-c2ccc(C(C)(C)O)cc2)cc2ncn(C)c(=O)c12)NS(C)(=O)=O

>  <Standard Type>  (132) 
IC50

>  <Standard Relation>  (132) 
'='

>  <Standard Units>  (132) 
nM

>  <Standard Value>  (132) 
87.0

>  <Assay ChEMBL ID>  (132) 
CHEMBL3705362

>  <Assay Description>  (132) 
Mobility-Shift kinase assay: Compounds of the examples provided herein were assessed for their ability to inhibit Syk kinase by utilizing Caliper Life Sciences' proprietary LabChip technology. The off-chip incubation mobility-shift kinase assay uses a microfluidic chip to measure the conversion of a fluorescent peptide substrate to a phosphorylated product. The reaction mixture, from a microtiter plate well, is introduced through a capillary sipper onto the chip, where the nonphosphorylated substrate and phosphorylated product are separated by electrophoresis and detected via laser induced fluorescence. The signature of the fluorescence signal over time reveals the extent of the reaction. The phosphorylated product migrates through the chip faster than the non-phosphorylated substrate, and signals from the two forms of the peptide appear as distinct peaks.

>  <BAO Format ID>  (132) 
BAO_0000357

>  <BAO Label>  (132) 
single protein format

>  <Assay Organism>  (132) 
Homo sapiens

>  <Target ChEMBL ID>  (132) 
CHEMBL2599

>  <Target Name>  (132) 
Tyrosine-protein kinase SYK

>  <Target Organism>  (132) 
Homo sapiens

>  <Target Type>  (132) 
SINGLE PROTEIN

>  <Document ChEMBL ID>  (132) 
CHEMBL3639055

>  <Source Description>  (132) 
BindingDB Database

>  <Document Journal>  (132) 
nan

>  <Document Year>  (132) 
2014.0

>  <Active>  (132) 
1.0

>  <bits>  (132) 
<rdkit.DataStructs.cDataStructs.ExplicitBitVect object at 0x00000193F34071B0>

>  <Group>  (132) 
G2

$$$$

     RDKit          2D

 30 34  0  0  0  0  0  0  0  0999 V2000
    9.7500   -1.2990    0.0000 C   0  0  0  0  0  0  0  0  0  0  0  0
    8.2500   -1.2990    0.0000 O   0  0  0  0  0  0  0  0  0  0  0  0
    7.5000   -2.5981    0.0000 C   0  0  0  0  0  0  0  0  0  0  0  0
    8.2500   -3.8971    0.0000 C   0  0  0  0  0  0  0  0  0  0  0  0
    7.5000   -5.1962    0.0000 C   0  0  0  0  0  0  0  0  0  0  0  0
    6.0000   -5.1962    0.0000 C   0  0  0  0  0  0  0  0  0  0  0  0
    5.2500   -6.4952    0.0000 N   0  0  0  0  0  0  0  0  0  0  0  0
    3.7500   -6.4952    0.0000 C   0  0  0  0  0  0  0  0  0  0  0  0
    3.0000   -5.1962    0.0000 N   0  0  0  0  0  0  0  0  0  0  0  0
    1.5000   -5.1962    0.0000 C   0  0  0  0  0  0  0  0  0  0  0  0
    0.7500   -3.8971    0.0000 C   0  0  0  0  0  0  0  0  0  0  0  0
   -0.7500   -3.8971    0.0000 C   0  0  0  0  0  0  0  0  0  0  0  0
   -1.5000   -2.5981    0.0000 C   0  0  0  0  0  0  0  0  0  0  0  0
   -0.7500   -1.2990    0.0000 C   0  0  0  0  0  0  0  0  0  0  0  0
    0.7500   -1.2990    0.0000 C   0  0  0  0  0  0  0  0  0  0  0  0
    1.5000   -2.5981    0.0000 C   0  0  0  0  0  0  0  0  0  0  0  0
    1.5000    0.0000    0.0000 N   0  0  0  0  0  0  0  0  0  0  0  0
    0.7500    1.2990    0.0000 C   0  0  0  0  0  0  0  0  0  0  0  0
   -0.7500    1.2990    0.0000 C   0  0  0  0  0  0  0  0  0  0  0  0
   -1.5000    0.0000    0.0000 O   0  0  0  0  0  0  0  0  0  0  0  0
    0.7500   -6.4952    0.0000 C   0  0  0  0  0  0  0  0  0  0  0  0
    1.5000   -7.7942    0.0000 N   0  0  0  0  0  0  0  0  0  0  0  0
    1.0365   -9.2208    0.0000 C   0  0  0  0  0  0  0  0  0  0  0  0
    2.2500  -10.1025    0.0000 C   0  0  0  0  0  0  0  0  0  0  0  0
    3.4635   -9.2208    0.0000 N   0  0  0  0  0  0  0  0  0  0  0  0
    3.0000   -7.7942    0.0000 C   0  0  0  0  0  0  0  0  0  0  0  0
    5.2500   -3.8971    0.0000 C   0  0  0  0  0  0  0  0  0  0  0  0
    6.0000   -2.5981    0.0000 C   0  0  0  0  0  0  0  0  0  0  0  0
    5.2500   -1.2990    0.0000 O   0  0  0  0  0  0  0  0  0  0  0  0
    3.7500   -1.2990    0.0000 C   0  0  0  0  0  0  0  0  0  0  0  0
  1  2  1  0
  2  3  1  0
  3  4  2  0
  4  5  1  0
  5  6  2  0
  6  7  1  0
  7  8  1  0
  8  9  2  0
  9 10  1  0
 10 11  1  0
 11 12  2  0
 12 13  1  0
 13 14  2  0
 14 15  1  0
 15 16  2  0
 15 17  1  0
 17 18  1  0
 18 19  1  0
 19 20  1  0
 10 21  2  0
 21 22  1  0
 22 23  1  0
 23 24  2  0
 24 25  1  0
 25 26  2  0
  6 27  1  0
 27 28  2  0
 28 29  1  0
 29 30  1  0
 28  3  1  0
 26  8  1  0
 16 11  1  0
 26 22  1  0
 20 14  1  0
M  END
>  <Compound_ID>  (133) 
CHEMBL3265026

>  <Molecule Name>  (133) 
nan

>  <Molecular Weight>  (133) 
403.44

>  <AlogP>  (133) 
3.96

>  <Smiles>  (133) 
COc1ccc(Nc2nc(-c3ccc4c(c3)NCCO4)cn3ccnc23)cc1OC

>  <Standard Type>  (133) 
IC50

>  <Standard Relation>  (133) 
'='

>  <Standard Units>  (133) 
nM

>  <Standard Value>  (133) 
4.7

>  <Assay ChEMBL ID>  (133) 
CHEMBL3270296

>  <Assay Description>  (133) 
Inhibition of full length Syk (unknown origin) using biotinylated peptide substrate

>  <BAO Format ID>  (133) 
BAO_0000357

>  <BAO Label>  (133) 
single protein format

>  <Assay Organism>  (133) 
Homo sapiens

>  <Target ChEMBL ID>  (133) 
CHEMBL2599

>  <Target Name>  (133) 
Tyrosine-protein kinase SYK

>  <Target Organism>  (133) 
Homo sapiens

>  <Target Type>  (133) 
SINGLE PROTEIN

>  <Document ChEMBL ID>  (133) 
CHEMBL3259702

>  <Source Description>  (133) 
Scientific Literature

>  <Document Journal>  (133) 
J Med Chem

>  <Document Year>  (133) 
2014.0

>  <Active>  (133) 
1.0

>  <bits>  (133) 
<rdkit.DataStructs.cDataStructs.ExplicitBitVect object at 0x00000193F3405230>

>  <Group>  (133) 
G2

$$$$

     RDKit          2D

 40 43  0  0  0  0  0  0  0  0999 V2000
   -1.5000   -0.0000    0.0000 C   0  0  0  0  0  0  0  0  0  0  0  0
   -3.0000    0.0000    0.0000 O   0  0  0  0  0  0  0  0  0  0  0  0
   -3.7500   -1.2990    0.0000 C   0  0  0  0  0  0  0  0  0  0  0  0
   -3.0000   -2.5981    0.0000 C   0  0  0  0  0  0  0  0  0  0  0  0
   -3.7500   -3.8971    0.0000 C   0  0  0  0  0  0  0  0  0  0  0  0
   -3.0000   -5.1962    0.0000 N   0  0  0  0  0  0  0  0  0  0  0  0
   -1.5000   -5.1962    0.0000 C   0  0  0  0  0  0  0  0  0  0  0  0
   -0.7500   -6.4952    0.0000 N   0  0  0  0  0  0  0  0  0  0  0  0
    0.7500   -6.4952    0.0000 C   0  0  0  0  0  0  0  0  0  0  0  0
    1.5000   -5.1962    0.0000 C   0  0  0  0  0  0  0  0  0  0  0  0
    3.0000   -5.1962    0.0000 F   0  0  0  0  0  0  0  0  0  0  0  0
    0.7500   -3.8971    0.0000 C   0  0  0  0  0  0  0  0  0  0  0  0
    1.5000   -2.5981    0.0000 N   0  0  0  0  0  0  0  0  0  0  0  0
    3.0000   -2.5981    0.0000 C   0  0  0  0  0  0  0  0  0  0  0  0
    3.7500   -3.8971    0.0000 C   0  0  0  0  0  0  0  0  0  0  0  0
    5.2500   -3.8971    0.0000 C   0  0  0  0  0  0  0  0  0  0  0  0
    6.0000   -2.5981    0.0000 C   0  0  0  0  0  0  0  0  0  0  0  0
    5.2500   -1.2990    0.0000 C   0  0  0  0  0  0  0  0  0  0  0  0
    3.7500   -1.2990    0.0000 N   0  0  0  0  0  0  0  0  0  0  0  0
    6.0000   -0.0000    0.0000 N   0  0  0  0  0  0  0  0  0  0  0  0
    5.2500    1.2990    0.0000 C   0  0  0  0  0  0  0  0  0  0  0  0
    6.0000    2.5981    0.0000 O   0  0  0  0  0  0  0  0  0  0  0  0
    5.2500    3.8971    0.0000 P   0  0  0  0  0  0  0  0  0  0  0  0
    6.5490    4.6471    0.0000 O   0  0  0  0  0  0  0  0  0  0  0  0
    3.9510    3.1471    0.0000 O   0  0  0  0  0  1  0  0  0  0  0  0
    4.5000    5.1962    0.0000 O   0  0  0  0  0  1  0  0  0  0  0  0
    7.5000   -0.0000    0.0000 C   0  0  0  0  0  0  0  0  0  0  0  0
    8.2500    1.2990    0.0000 O   0  0  0  0  0  0  0  0  0  0  0  0
    8.2500   -1.2990    0.0000 C   0  0  0  0  0  0  0  0  0  0  0  0
    9.3991   -2.2632    0.0000 C   0  0  0  0  0  0  0  0  0  0  0  0
    9.3991   -0.3349    0.0000 C   0  0  0  0  0  0  0  0  0  0  0  0
    7.5000   -2.5981    0.0000 O   0  0  0  0  0  0  0  0  0  0  0  0
   -0.7500   -3.8971    0.0000 N   0  0  0  0  0  0  0  0  0  0  0  0
   -5.2500   -3.8971    0.0000 C   0  0  0  0  0  0  0  0  0  0  0  0
   -6.0000   -2.5981    0.0000 C   0  0  0  0  0  0  0  0  0  0  0  0
   -7.5000   -2.5981    0.0000 O   0  0  0  0  0  0  0  0  0  0  0  0
   -8.2500   -1.2990    0.0000 C   0  0  0  0  0  0  0  0  0  0  0  0
   -5.2500   -1.2990    0.0000 C   0  0  0  0  0  0  0  0  0  0  0  0
   -6.0000    0.0000    0.0000 O   0  0  0  0  0  0  0  0  0  0  0  0
   -7.5000    0.0000    0.0000 C   0  0  0  0  0  0  0  0  0  0  0  0
  1  2  1  0
  2  3  1  0
  3  4  2  0
  4  5  1  0
  5  6  1  0
  6  7  1  0
  7  8  2  0
  8  9  1  0
  9 10  2  0
 10 11  1  0
 10 12  1  0
 12 13  1  0
 13 14  1  0
 14 15  2  0
 15 16  1  0
 16 17  2  0
 17 18  1  0
 18 19  2  0
 18 20  1  0
 20 21  1  0
 21 22  1  0
 22 23  1  0
 23 24  2  0
 23 25  1  0
 23 26  1  0
 20 27  1  0
 27 28  2  0
 27 29  1  0
 29 30  1  0
 29 31  1  0
 29 32  1  0
 12 33  2  0
  5 34  2  0
 34 35  1  0
 35 36  1  0
 36 37  1  0
 35 38  2  0
 38 39  1  0
 39 40  1  0
 38  3  1  0
 33  7  1  0
 19 14  1  0
 32 17  1  0
M  CHG  2  25  -1  26  -1
M  END
>  <Compound_ID>  (134) 
CHEMBL3989516

>  <Molecule Name>  (134) 
FOSTAMATINIB DISODIUM

>  <Molecular Weight>  (134) 
732.52

>  <AlogP>  (134) 
3.09

>  <Smiles>  (134) 
COc1cc(Nc2ncc(F)c(Nc3ccc4c(n3)N(COP(=O)([O-])[O-])C(=O)C(C)(C)O4)n2)cc(OC)c1OC

>  <Standard Type>  (134) 
IC50

>  <Standard Relation>  (134) 
'='

>  <Standard Units>  (134) 
nM

>  <Standard Value>  (134) 
17.0

>  <Assay ChEMBL ID>  (134) 
CHEMBL2189057

>  <Assay Description>  (134) 
Inhibition of human recombinant spleen tyrosine kinase (360 to 635 amino acid residues) after 10 mins by scintillation counting analysis

>  <BAO Format ID>  (134) 
BAO_0000357

>  <BAO Label>  (134) 
single protein format

>  <Assay Organism>  (134) 
Homo sapiens

>  <Target ChEMBL ID>  (134) 
CHEMBL2599

>  <Target Name>  (134) 
Tyrosine-protein kinase SYK

>  <Target Organism>  (134) 
Homo sapiens

>  <Target Type>  (134) 
SINGLE PROTEIN

>  <Document ChEMBL ID>  (134) 
CHEMBL2176924

>  <Source Description>  (134) 
Scientific Literature

>  <Document Journal>  (134) 
J Med Chem

>  <Document Year>  (134) 
2012.0

>  <Active>  (134) 
1.0

>  <bits>  (134) 
<rdkit.DataStructs.cDataStructs.ExplicitBitVect object at 0x00000193F3405310>

>  <Group>  (134) 
G2

$$$$

     RDKit          2D

 31 34  0  0  0  0  0  0  0  0999 V2000
   -4.5556    9.1664    0.0000 C   0  0  0  0  0  0  0  0  0  0  0  0
   -3.4408    8.1628    0.0000 C   0  0  0  0  0  0  0  0  0  0  0  0
   -2.0143    8.6263    0.0000 C   0  0  0  0  0  0  0  0  0  0  0  0
   -0.8995    7.6226    0.0000 C   0  0  0  0  0  0  0  0  0  0  0  0
    0.5271    8.0861    0.0000 C   0  0  0  0  0  0  0  0  0  0  0  0
   -1.2114    6.1554    0.0000 C   0  0  0  0  0  0  0  0  0  0  0  0
   -2.6380    5.6918    0.0000 C   0  0  0  0  0  0  0  0  0  0  0  0
   -2.9499    4.2246    0.0000 N   0  0  0  0  0  0  0  0  0  0  0  0
   -1.8351    3.2209    0.0000 C   0  0  0  0  0  0  0  0  0  0  0  0
   -0.4086    3.6844    0.0000 N   0  0  0  0  0  0  0  0  0  0  0  0
    0.7062    2.6807    0.0000 C   0  0  0  0  0  0  0  0  0  0  0  0
    2.1328    3.1443    0.0000 N   0  0  0  0  0  0  0  0  0  0  0  0
    2.4446    4.6115    0.0000 C   0  0  0  0  0  0  0  0  0  0  0  0
    1.3299    5.6152    0.0000 C   0  0  0  0  0  0  0  0  0  0  0  0
    1.6418    7.0824    0.0000 N   0  0  0  0  0  0  0  0  0  0  0  0
    3.8712    5.0750    0.0000 C   0  0  0  0  0  0  0  0  0  0  0  0
    4.9859    4.0713    0.0000 C   0  0  0  0  0  0  0  0  0  0  0  0
    6.4125    4.5348    0.0000 C   0  0  0  0  0  0  0  0  0  0  0  0
    6.7244    6.0021    0.0000 C   0  0  0  0  0  0  0  0  0  0  0  0
    5.6097    7.0058    0.0000 C   0  0  0  0  0  0  0  0  0  0  0  0
    4.1831    6.5422    0.0000 C   0  0  0  0  0  0  0  0  0  0  0  0
    0.3943    1.2135    0.0000 N   0  0  0  0  0  0  0  0  0  0  0  0
    1.2760    0.0000    0.0000 C   0  0  0  0  0  0  0  0  0  0  0  0
    0.3943   -1.2135    0.0000 C   0  0  0  0  0  0  0  0  0  0  0  0
   -1.0323   -0.7500    0.0000 N   0  0  0  0  0  0  0  0  0  0  0  0
   -1.0323    0.7500    0.0000 C   0  0  0  0  0  0  0  0  0  0  0  0
   -2.1470    1.7537    0.0000 C   0  0  0  0  0  0  0  0  0  0  0  0
   -3.5736    1.2902    0.0000 C   0  0  0  0  0  0  0  0  0  0  0  0
   -4.6883    2.2939    0.0000 N   0  0  0  0  0  0  0  0  0  0  0  0
   -3.8855   -0.1771    0.0000 O   0  0  0  0  0  0  0  0  0  0  0  0
   -3.7527    6.6955    0.0000 C   0  0  0  0  0  0  0  0  0  0  0  0
  1  2  1  0
  2  3  2  0
  3  4  1  0
  4  5  1  0
  4  6  2  0
  6  7  1  0
  7  8  1  0
  8  9  1  0
  9 10  1  0
 10 11  2  0
 11 12  1  0
 12 13  1  0
 13 14  1  6
 14 15  1  0
 13 16  1  0
 16 17  2  0
 17 18  1  0
 18 19  2  0
 19 20  1  0
 20 21  2  0
 11 22  1  0
 22 23  1  0
 23 24  2  0
 24 25  1  0
 25 26  2  0
 26 27  1  0
 27 28  1  0
 28 29  1  0
 28 30  2  0
  7 31  2  0
 31  2  1  0
 27  9  2  0
 21 16  1  0
 26 22  1  0
M  END
>  <Compound_ID>  (135) 
CHEMBL475248

>  <Molecule Name>  (135) 
nan

>  <Molecular Weight>  (135) 
415.5

>  <AlogP>  (135) 
3.30

>  <Smiles>  (135) 
Cc1cc(C)cc(Nc2nc(N[C@H](CN)c3ccccc3)n3ccnc3c2C(N)=O)c1

>  <Standard Type>  (135) 
IC50

>  <Standard Relation>  (135) 
'='

>  <Standard Units>  (135) 
nM

>  <Standard Value>  (135) 
21.0

>  <Assay ChEMBL ID>  (135) 
CHEMBL1022010

>  <Assay Description>  (135) 
Inhibition of recombinant Syk

>  <BAO Format ID>  (135) 
BAO_0000357

>  <BAO Label>  (135) 
single protein format

>  <Assay Organism>  (135) 
None

>  <Target ChEMBL ID>  (135) 
CHEMBL2599

>  <Target Name>  (135) 
Tyrosine-protein kinase SYK

>  <Target Organism>  (135) 
Homo sapiens

>  <Target Type>  (135) 
SINGLE PROTEIN

>  <Document ChEMBL ID>  (135) 
CHEMBL1138583

>  <Source Description>  (135) 
Scientific Literature

>  <Document Journal>  (135) 
Bioorg Med Chem Lett

>  <Document Year>  (135) 
2009.0

>  <Active>  (135) 
1.0

>  <bits>  (135) 
<rdkit.DataStructs.cDataStructs.ExplicitBitVect object at 0x00000193F3405F50>

>  <Group>  (135) 
G2

$$$$

     RDKit          2D

 23 24  0  0  0  0  0  0  0  0999 V2000
    5.2500   -1.2990    0.0000 C   0  0  0  0  0  0  0  0  0  0  0  0
    3.7500   -1.2990    0.0000 C   0  0  0  0  0  0  0  0  0  0  0  0
    3.0000    0.0000    0.0000 O   0  0  0  0  0  0  0  0  0  0  0  0
    1.5000    0.0000    0.0000 C   0  0  0  0  0  0  0  0  0  0  0  0
    0.7500   -1.2990    0.0000 C   0  0  0  0  0  0  0  0  0  0  0  0
   -0.7500   -1.2990    0.0000 C   0  0  0  0  0  0  0  0  0  0  0  0
   -1.5000    0.0000    0.0000 C   0  0  0  0  0  0  0  0  0  0  0  0
   -0.7500    1.2990    0.0000 C   0  0  0  0  0  0  0  0  0  0  0  0
   -1.5000    2.5981    0.0000 N   0  0  0  0  0  0  0  0  0  0  0  0
   -0.7500    3.8971    0.0000 C   0  0  0  0  0  0  0  0  0  0  0  0
    0.7500    3.8971    0.0000 N   0  0  0  0  0  0  0  0  0  0  0  0
    1.5000    5.1962    0.0000 C   0  0  0  0  0  0  0  0  0  0  0  0
    3.0000    5.1962    0.0000 N   0  0  0  0  0  0  0  0  0  0  0  0
    3.7500    3.8971    0.0000 C   0  0  0  0  0  0  0  0  0  0  0  0
    5.2500    3.8971    0.0000 C   0  0  0  0  0  0  0  0  0  0  0  0
    6.0000    2.5981    0.0000 N   0  0  0  0  0  0  0  0  0  0  0  0
    0.7500    6.4952    0.0000 N   0  0  0  0  0  0  0  0  0  0  0  0
   -0.7500    6.4952    0.0000 C   0  0  0  0  0  0  0  0  0  0  0  0
   -1.5000    5.1962    0.0000 C   0  0  0  0  0  0  0  0  0  0  0  0
   -3.0000    5.1962    0.0000 C   0  0  0  0  0  0  0  0  0  0  0  0
   -3.7500    6.4952    0.0000 N   0  0  0  0  0  0  0  0  0  0  0  0
   -3.7500    3.8971    0.0000 O   0  0  0  0  0  0  0  0  0  0  0  0
    0.7500    1.2990    0.0000 C   0  0  0  0  0  0  0  0  0  0  0  0
  1  2  1  0
  2  3  1  0
  3  4  1  0
  4  5  2  0
  5  6  1  0
  6  7  2  0
  7  8  1  0
  8  9  1  0
  9 10  1  0
 10 11  2  0
 11 12  1  0
 12 13  1  0
 13 14  1  0
 14 15  1  0
 15 16  1  0
 12 17  2  0
 17 18  1  0
 18 19  2  0
 19 20  1  0
 20 21  1  0
 20 22  2  0
  8 23  2  0
 23  4  1  0
 19 10  1  0
M  END
>  <Compound_ID>  (136) 
CHEMBL506448

>  <Molecule Name>  (136) 
nan

>  <Molecular Weight>  (136) 
316.37

>  <AlogP>  (136) 
1.09

>  <Smiles>  (136) 
CCOc1cccc(Nc2nc(NCCN)ncc2C(N)=O)c1

>  <Standard Type>  (136) 
IC50

>  <Standard Relation>  (136) 
'='

>  <Standard Units>  (136) 
nM

>  <Standard Value>  (136) 
81.0

>  <Assay ChEMBL ID>  (136) 
CHEMBL1022010

>  <Assay Description>  (136) 
Inhibition of recombinant Syk

>  <BAO Format ID>  (136) 
BAO_0000357

>  <BAO Label>  (136) 
single protein format

>  <Assay Organism>  (136) 
None

>  <Target ChEMBL ID>  (136) 
CHEMBL2599

>  <Target Name>  (136) 
Tyrosine-protein kinase SYK

>  <Target Organism>  (136) 
Homo sapiens

>  <Target Type>  (136) 
SINGLE PROTEIN

>  <Document ChEMBL ID>  (136) 
CHEMBL1138583

>  <Source Description>  (136) 
Scientific Literature

>  <Document Journal>  (136) 
Bioorg Med Chem Lett

>  <Document Year>  (136) 
2009.0

>  <Active>  (136) 
1.0

>  <bits>  (136) 
<rdkit.DataStructs.cDataStructs.ExplicitBitVect object at 0x00000193F3407C30>

>  <Group>  (136) 
G2

$$$$

     RDKit          2D

 28 29  0  0  0  0  0  0  0  0999 V2000
    7.5000   -2.5981    0.0000 C   0  0  0  0  0  0  0  0  0  0  0  0
    6.0000   -2.5981    0.0000 C   0  0  0  0  0  0  0  0  0  0  0  0
    5.2500   -3.8971    0.0000 C   0  0  0  0  0  0  0  0  0  0  0  0
    5.2500   -1.2990    0.0000 C   0  0  0  0  0  0  0  0  0  0  0  0
    3.7500   -1.2990    0.0000 C   0  0  0  0  0  0  0  0  0  0  0  0
    3.0000   -2.5981    0.0000 C   0  0  0  0  0  0  0  0  0  0  0  0
    3.7500   -3.8971    0.0000 N   0  0  0  0  0  0  0  0  0  0  0  0
    3.0000    0.0000    0.0000 N   0  0  0  0  0  0  0  0  0  0  0  0
    1.5000    0.0000    0.0000 C   0  0  0  0  0  0  0  0  0  0  0  0
    0.7500   -1.2990    0.0000 C   0  0  0  0  0  0  0  0  0  0  0  0
   -0.7500   -1.2990    0.0000 C   0  0  0  0  0  0  0  0  0  0  0  0
   -1.5000   -2.5981    0.0000 N   0  0  0  0  0  0  0  0  0  0  0  0
   -0.7500   -3.8971    0.0000 C   0  0  0  0  0  0  0  0  0  0  0  0
    0.7500   -3.8971    0.0000 C   0  0  0  0  0  0  0  0  0  0  0  0
    1.5000   -5.1962    0.0000 C   0  0  0  0  0  0  0  0  0  0  0  0
    0.7500   -6.4952    0.0000 C   0  0  0  0  0  0  0  0  0  0  0  0
   -0.7500   -6.4952    0.0000 C   0  0  0  0  0  0  0  0  0  0  0  0
   -1.5000   -7.7942    0.0000 C   0  0  0  0  0  0  0  0  0  0  0  0
   -0.2010   -8.5442    0.0000 C   0  0  0  0  0  0  0  0  0  0  0  0
   -2.7990   -7.0442    0.0000 C   0  0  0  0  0  0  0  0  0  0  0  0
   -2.2500   -9.0933    0.0000 C   0  0  0  0  0  0  0  0  0  0  0  0
   -1.5000   -5.1962    0.0000 N   0  0  0  0  0  0  0  0  0  0  0  0
   -1.5000    0.0000    0.0000 C   0  0  0  0  0  0  0  0  0  0  0  0
   -3.0000    0.0000    0.0000 C   0  0  0  0  0  0  0  0  0  0  0  0
   -3.7500    1.2990    0.0000 N   0  0  0  0  0  0  0  0  0  0  0  0
   -3.7500   -1.2990    0.0000 O   0  0  0  0  0  0  0  0  0  0  0  0
   -0.7500    1.2990    0.0000 N   0  0  0  0  0  0  0  0  0  0  0  0
    0.7500    1.2990    0.0000 N   0  0  0  0  0  0  0  0  0  0  0  0
  1  2  1  0
  2  3  1  0
  2  4  1  0
  5  4  1  6
  5  6  1  0
  6  7  1  0
  5  8  1  0
  8  9  1  0
  9 10  2  0
 10 11  1  0
 11 12  1  0
 12 13  1  0
 13 14  2  0
 14 15  1  0
 15 16  2  0
 16 17  1  0
 17 18  1  0
 18 19  1  0
 18 20  1  0
 18 21  1  0
 17 22  2  0
 11 23  2  0
 23 24  1  0
 24 25  1  0
 24 26  2  0
 23 27  1  0
 27 28  2  0
 28  9  1  0
 22 13  1  0
M  END
>  <Compound_ID>  (137) 
CHEMBL3237572

>  <Molecule Name>  (137) 
nan

>  <Molecular Weight>  (137) 
385.52

>  <AlogP>  (137) 
2.80

>  <Smiles>  (137) 
CC(C)C[C@H](CN)Nc1cc(Nc2cccc(C(C)(C)C)n2)c(C(N)=O)nn1

>  <Standard Type>  (137) 
IC50

>  <Standard Relation>  (137) 
'='

>  <Standard Units>  (137) 
nM

>  <Standard Value>  (137) 
6.31

>  <Assay ChEMBL ID>  (137) 
CHEMBL3240906

>  <Assay Description>  (137) 
Inhibition of human SYK (360 to 635) using biotin-EPEGDYEEVLE as substrate preincubated for 10 mins followed by substrate/ATP/[33Pgamma]ATP addition measured after 15 mins by scintillation counting analysis

>  <BAO Format ID>  (137) 
BAO_0000357

>  <BAO Label>  (137) 
single protein format

>  <Assay Organism>  (137) 
Homo sapiens

>  <Target ChEMBL ID>  (137) 
CHEMBL2599

>  <Target Name>  (137) 
Tyrosine-protein kinase SYK

>  <Target Organism>  (137) 
Homo sapiens

>  <Target Type>  (137) 
SINGLE PROTEIN

>  <Document ChEMBL ID>  (137) 
CHEMBL3232975

>  <Source Description>  (137) 
Scientific Literature

>  <Document Journal>  (137) 
J Med Chem

>  <Document Year>  (137) 
2014.0

>  <Active>  (137) 
1.0

>  <bits>  (137) 
<rdkit.DataStructs.cDataStructs.ExplicitBitVect object at 0x00000193F3404270>

>  <Group>  (137) 
G2

$$$$

     RDKit          2D

 35 38  0  0  0  0  0  0  0  0999 V2000
    3.0000    0.0000    0.0000 C   0  0  0  0  0  0  0  0  0  0  0  0
    1.5000    0.0000    0.0000 C   0  0  0  0  0  0  0  0  0  0  0  0
    0.7500   -1.2990    0.0000 C   0  0  0  0  0  0  0  0  0  0  0  0
   -0.7500   -1.2990    0.0000 C   0  0  0  0  0  0  0  0  0  0  0  0
   -1.5000   -2.5981    0.0000 N   0  0  0  0  0  0  0  0  0  0  0  0
   -3.0000   -2.5981    0.0000 C   0  0  0  0  0  0  0  0  0  0  0  0
   -3.7500   -1.2990    0.0000 N   0  0  0  0  0  0  0  0  0  0  0  0
   -5.2500   -1.2990    0.0000 C   0  0  0  0  0  0  0  0  0  0  0  0
   -6.0000   -2.5981    0.0000 C   0  0  0  0  0  0  0  0  0  0  0  0
   -5.2500   -3.8971    0.0000 C   0  0  0  0  0  0  0  0  0  0  0  0
   -6.0000   -5.1962    0.0000 C   0  0  0  0  0  0  0  0  0  0  0  0
   -3.7500   -3.8971    0.0000 N   0  0  0  0  0  0  0  0  0  0  0  0
   -1.5000    0.0000    0.0000 C   0  0  0  0  0  0  0  0  0  0  0  0
   -0.7500    1.2990    0.0000 C   0  0  0  0  0  0  0  0  0  0  0  0
   -1.5000    2.5981    0.0000 C   0  0  0  0  0  0  0  0  0  0  0  0
   -2.9918    2.7549    0.0000 C   0  0  0  0  0  0  0  0  0  0  0  0
   -3.3037    4.2221    0.0000 N   0  0  0  0  0  0  0  0  0  0  0  0
   -2.0046    4.9721    0.0000 C   0  0  0  0  0  0  0  0  0  0  0  0
   -1.8478    6.4639    0.0000 C   0  0  0  0  0  0  0  0  0  0  0  0
   -0.4059    6.0504    0.0000 O   0  0  0  0  0  0  0  0  0  0  0  0
   -3.3442    6.3592    0.0000 C   0  0  0  0  0  0  0  0  0  0  0  0
   -4.1830    7.6028    0.0000 C   0  0  0  0  0  0  0  0  0  0  0  0
   -3.5254    8.9510    0.0000 C   0  0  0  0  0  0  0  0  0  0  0  0
   -4.3642   10.1945    0.0000 C   0  0  0  0  0  0  0  0  0  0  0  0
   -5.8605   10.0899    0.0000 O   0  0  0  0  0  0  0  0  0  0  0  0
   -3.7066   11.5427    0.0000 N   0  0  0  0  0  0  0  0  0  0  0  0
   -4.5454   12.7863    0.0000 C   0  0  0  0  0  0  0  0  0  0  0  0
   -3.8879   14.1345    0.0000 C   0  0  0  0  0  0  0  0  0  0  0  0
   -3.2303   15.4827    0.0000 N   0  0  0  0  0  0  0  0  0  0  0  0
   -2.0291    9.0556    0.0000 C   0  0  0  0  0  0  0  0  0  0  0  0
   -0.6587    9.6657    0.0000 C   0  0  0  0  0  0  0  0  0  0  0  0
   -2.3919   10.5111    0.0000 C   0  0  0  0  0  0  0  0  0  0  0  0
   -1.1903    7.8121    0.0000 C   0  0  0  0  0  0  0  0  0  0  0  0
   -0.8899    3.9684    0.0000 S   0  0  0  0  0  0  0  0  0  0  0  0
    0.7500    1.2990    0.0000 C   0  0  0  0  0  0  0  0  0  0  0  0
  1  2  1  0
  2  3  2  0
  3  4  1  0
  4  5  1  0
  5  6  1  0
  6  7  2  0
  7  8  1  0
  8  9  2  0
  9 10  1  0
 10 11  1  0
 10 12  2  0
  4 13  2  0
 13 14  1  0
 14 15  1  0
 15 16  2  0
 16 17  1  0
 17 18  2  0
 18 19  1  0
 19 20  1  6
 19 21  1  0
 21 22  1  0
 22 23  1  0
 23 24  1  6
 24 25  2  0
 24 26  1  0
 26 27  1  0
 27 28  1  0
 28 29  3  0
 23 30  1  0
 30 31  1  0
 30 32  1  0
 30 33  1  0
 18 34  1  0
 14 35  2  0
 35  2  1  0
 12  6  1  0
 34 15  1  0
 33 19  1  0
M  END
>  <Compound_ID>  (138) 
CHEMBL3685799

>  <Molecule Name>  (138) 
nan

>  <Molecular Weight>  (138) 
490.63

>  <AlogP>  (138) 
4.61

>  <Smiles>  (138) 
Cc1cc(Nc2nccc(C)n2)cc(-c2cnc([C@@]3(O)CC[C@H](C(=O)NCC#N)C(C)(C)C3)s2)c1

>  <Standard Type>  (138) 
IC50

>  <Standard Relation>  (138) 
'='

>  <Standard Units>  (138) 
nM

>  <Standard Value>  (138) 
2.0

>  <Assay ChEMBL ID>  (138) 
CHEMBL3705225

>  <Assay Description>  (138) 
Homogeneous Time-Resolved Fluorescence (HTRF) Assay : A recombinant GST-hSYK fusion protein was used to measure potency of compounds to inhibit human SYK activity. The recombinant human GST-SYK (Carna Biosciences #08-176) (5 pM final concentration) was incubated with various concentrations of the inhibitor diluted in DMSO (0.1% final concentration) for 10 minutes at room temperature in 15 mM Tris-HCl (pH 7.5), 0.01% tween 20, 2 mM DTT in 384 well plate format. To initiate the reaction the biotinylated substrate peptide (250 nM final concentration) that contains the phosphorylation site for SYK was added with magnesium (5 mM final concentration) and ATP (25 μM final concentration). Final volume of the reaction was 10 μL. Phosphorylation of the peptide was allowed to proceed for 45′ at room temperature.

>  <BAO Format ID>  (138) 
BAO_0000357

>  <BAO Label>  (138) 
single protein format

>  <Assay Organism>  (138) 
Homo sapiens

>  <Target ChEMBL ID>  (138) 
CHEMBL2599

>  <Target Name>  (138) 
Tyrosine-protein kinase SYK

>  <Target Organism>  (138) 
Homo sapiens

>  <Target Type>  (138) 
SINGLE PROTEIN

>  <Document ChEMBL ID>  (138) 
CHEMBL3639355

>  <Source Description>  (138) 
BindingDB Database

>  <Document Journal>  (138) 
nan

>  <Document Year>  (138) 
2014.0

>  <Active>  (138) 
1.0

>  <bits>  (138) 
<rdkit.DataStructs.cDataStructs.ExplicitBitVect object at 0x00000193F3405150>

>  <Group>  (138) 
G2

$$$$

     RDKit          2D

 33 37  0  0  0  0  0  0  0  0999 V2000
   -2.5981   -9.0850    0.0000 C   0  0  0  0  0  0  0  0  0  0  0  0
   -1.2990   -8.3350    0.0000 O   0  0  0  0  0  0  0  0  0  0  0  0
   -1.2990   -6.8350    0.0000 C   0  0  0  0  0  0  0  0  0  0  0  0
   -2.5981   -6.0850    0.0000 O   0  0  0  0  0  0  0  0  0  0  0  0
   -0.0000   -6.0850    0.0000 N   0  0  0  0  0  0  0  0  0  0  0  0
   -0.0000   -4.5850    0.0000 C   0  0  0  0  0  0  0  0  0  0  0  0
    1.3515   -3.9342    0.0000 C   0  0  0  0  0  0  0  0  0  0  0  0
    1.6852   -2.4718    0.0000 C   0  0  0  0  0  0  0  0  0  0  0  0
    2.6205   -1.2990    0.0000 C   0  0  0  0  0  0  0  0  0  0  0  0
    3.0367   -3.1226    0.0000 C   0  0  0  0  0  0  0  0  0  0  0  0
    0.7500   -1.2990    0.0000 C   0  0  0  0  0  0  0  0  0  0  0  0
    1.5000    0.0000    0.0000 C   0  0  0  0  0  0  0  0  0  0  0  0
    0.7500    1.2990    0.0000 C   0  0  0  0  0  0  0  0  0  0  0  0
   -0.7500    1.2990    0.0000 C   0  0  0  0  0  0  0  0  0  0  0  0
   -1.5000    2.5981    0.0000 N   0  0  0  0  0  0  0  0  0  0  0  0
   -0.7500    3.8971    0.0000 C   0  0  0  0  0  0  0  0  0  0  0  0
    0.7500    3.8971    0.0000 N   0  0  0  0  0  0  0  0  0  0  0  0
    1.5000    5.1962    0.0000 C   0  0  0  0  0  0  0  0  0  0  0  0
    3.0000    5.1962    0.0000 N   0  0  0  0  0  0  0  0  0  0  0  0
    3.7500    3.8971    0.0000 C   0  0  0  0  0  0  0  0  0  0  0  0
    5.0490    3.1471    0.0000 C   0  0  0  0  0  0  0  0  0  0  0  0
    3.7500    2.3971    0.0000 C   0  0  0  0  0  0  0  0  0  0  0  0
    0.7500    6.4952    0.0000 C   0  0  0  0  0  0  0  0  0  0  0  0
    1.2135    7.9218    0.0000 O   0  0  0  0  0  0  0  0  0  0  0  0
    0.0000    8.8035    0.0000 C   0  0  0  0  0  0  0  0  0  0  0  0
   -1.2135    7.9218    0.0000 C   0  0  0  0  0  0  0  0  0  0  0  0
   -0.7500    6.4952    0.0000 C   0  0  0  0  0  0  0  0  0  0  0  0
   -1.5000    5.1962    0.0000 N   0  0  0  0  0  0  0  0  0  0  0  0
   -1.5000    0.0000    0.0000 C   0  0  0  0  0  0  0  0  0  0  0  0
   -0.7500   -1.2990    0.0000 C   0  0  0  0  0  0  0  0  0  0  0  0
   -1.6852   -2.4718    0.0000 N   0  0  0  0  0  0  0  0  0  0  0  0
   -1.3515   -3.9342    0.0000 C   0  0  0  0  0  0  0  0  0  0  0  0
   -2.5242   -4.8694    0.0000 O   0  0  0  0  0  0  0  0  0  0  0  0
  1  2  1  0
  2  3  1  0
  3  4  2  0
  3  5  1  0
  6  5  1  1
  6  7  1  0
  7  8  1  0
  8  9  1  0
  8 10  1  0
  8 11  1  0
 11 12  2  0
 12 13  1  0
 13 14  2  0
 14 15  1  0
 15 16  1  0
 16 17  2  0
 17 18  1  0
 18 19  1  0
 19 20  1  0
 20 21  1  0
 21 22  1  0
 18 23  2  0
 23 24  1  0
 24 25  1  0
 25 26  2  0
 26 27  1  0
 27 28  2  0
 14 29  1  0
 29 30  2  0
 30 31  1  0
 31 32  1  0
 32 33  2  0
 32  6  1  0
 30 11  1  0
 28 16  1  0
 22 20  1  0
 27 23  1  0
M  END
>  <Compound_ID>  (139) 
CHEMBL4071441

>  <Molecule Name>  (139) 
nan

>  <Molecular Weight>  (139) 
450.5

>  <AlogP>  (139) 
3.89

>  <Smiles>  (139) 
COC(=O)N[C@@H]1CC(C)(C)c2ccc(Nc3nc(NC4CC4)c4occc4n3)cc2NC1=O

>  <Standard Type>  (139) 
IC50

>  <Standard Relation>  (139) 
'='

>  <Standard Units>  (139) 
nM

>  <Standard Value>  (139) 
12.0

>  <Assay ChEMBL ID>  (139) 
CHEMBL4007647

>  <Assay Description>  (139) 
Inhibition of C-terminal His-tagged Syk catalytic domain (356 to 635 residues) (unknown origin) using biotin-TYR1 as substrate after 60 mins by TR-FRET assay

>  <BAO Format ID>  (139) 
BAO_0000357

>  <BAO Label>  (139) 
single protein format

>  <Assay Organism>  (139) 
Homo sapiens

>  <Target ChEMBL ID>  (139) 
CHEMBL2599

>  <Target Name>  (139) 
Tyrosine-protein kinase SYK

>  <Target Organism>  (139) 
Homo sapiens

>  <Target Type>  (139) 
SINGLE PROTEIN

>  <Document ChEMBL ID>  (139) 
CHEMBL4007384

>  <Source Description>  (139) 
Scientific Literature

>  <Document Journal>  (139) 
Bioorg Med Chem Lett

>  <Document Year>  (139) 
2016.0

>  <Active>  (139) 
1.0

>  <bits>  (139) 
<rdkit.DataStructs.cDataStructs.ExplicitBitVect object at 0x00000193F3405700>

>  <Group>  (139) 
G2

$$$$

     RDKit          2D

 35 38  0  0  0  0  0  0  0  0999 V2000
    5.2841   -3.4619    0.0000 C   0  0  0  0  0  0  0  0  0  0  0  0
    4.6740   -4.8322    0.0000 C   0  0  0  0  0  0  0  0  0  0  0  0
    6.0443   -5.4423    0.0000 O   0  0  0  0  0  0  0  0  0  0  0  0
    3.3037   -4.2221    0.0000 C   0  0  0  0  0  0  0  0  0  0  0  0
    2.0046   -4.9721    0.0000 N   0  0  0  0  0  0  0  0  0  0  0  0
    0.8899   -3.9684    0.0000 C   0  0  0  0  0  0  0  0  0  0  0  0
    1.5000   -2.5981    0.0000 C   0  0  0  0  0  0  0  0  0  0  0  0
    0.7500   -1.2990    0.0000 C   0  0  0  0  0  0  0  0  0  0  0  0
    1.5000    0.0000    0.0000 C   0  0  0  0  0  0  0  0  0  0  0  0
    0.7500    1.2990    0.0000 C   0  0  0  0  0  0  0  0  0  0  0  0
    1.5000    2.5981    0.0000 F   0  0  0  0  0  0  0  0  0  0  0  0
   -0.7500    1.2990    0.0000 C   0  0  0  0  0  0  0  0  0  0  0  0
   -1.5000    0.0000    0.0000 C   0  0  0  0  0  0  0  0  0  0  0  0
   -3.0000    0.0000    0.0000 N   0  0  0  0  0  0  0  0  0  0  0  0
   -3.7500    1.2990    0.0000 C   0  0  0  0  0  0  0  0  0  0  0  0
   -3.0000    2.5981    0.0000 N   0  0  0  0  0  0  0  0  0  0  0  0
   -3.7500    3.8971    0.0000 C   0  0  0  0  0  0  0  0  0  0  0  0
   -5.2500    3.8971    0.0000 C   0  0  0  0  0  0  0  0  0  0  0  0
   -6.0000    2.5981    0.0000 C   0  0  0  0  0  0  0  0  0  0  0  0
   -7.5000    2.5981    0.0000 C   0  0  0  0  0  0  0  0  0  0  0  0
   -9.0000    2.5981    0.0000 F   0  0  0  0  0  0  0  0  0  0  0  0
   -7.5000    4.0981    0.0000 F   0  0  0  0  0  0  0  0  0  0  0  0
   -7.5000    1.0981    0.0000 F   0  0  0  0  0  0  0  0  0  0  0  0
   -5.2500    1.2990    0.0000 N   0  0  0  0  0  0  0  0  0  0  0  0
   -0.7500   -1.2990    0.0000 C   0  0  0  0  0  0  0  0  0  0  0  0
    2.9918   -2.7549    0.0000 S   0  0  0  0  0  0  0  0  0  0  0  0
    4.0639   -6.2025    0.0000 C   0  0  0  0  0  0  0  0  0  0  0  0
    2.5721   -6.3593    0.0000 C   0  0  0  0  0  0  0  0  0  0  0  0
    1.9620   -7.7296    0.0000 C   0  0  0  0  0  0  0  0  0  0  0  0
    2.8437   -8.9431    0.0000 C   0  0  0  0  0  0  0  0  0  0  0  0
    2.2335  -10.3135    0.0000 C   0  0  0  0  0  0  0  0  0  0  0  0
    3.1152  -11.5270    0.0000 O   0  0  0  0  0  0  0  0  0  0  0  0
    0.7418  -10.4703    0.0000 O   0  0  0  0  0  0  0  0  0  0  0  0
    4.3354   -8.7864    0.0000 C   0  0  0  0  0  0  0  0  0  0  0  0
    4.9455   -7.4160    0.0000 C   0  0  0  0  0  0  0  0  0  0  0  0
  2  1  1  6
  2  3  1  0
  2  4  1  0
  4  5  2  0
  5  6  1  0
  6  7  2  0
  7  8  1  0
  8  9  2  0
  9 10  1  0
 10 11  1  0
 10 12  2  0
 12 13  1  0
 13 14  1  0
 14 15  1  0
 15 16  2  0
 16 17  1  0
 17 18  2  0
 18 19  1  0
 19 20  1  0
 20 21  1  0
 20 22  1  0
 20 23  1  0
 19 24  2  0
 13 25  2  0
  7 26  1  0
  2 27  1  0
 27 28  1  6
 28 29  1  0
 29 30  1  0
 30 31  1  1
 31 32  2  0
 31 33  1  0
 30 34  1  0
 34 35  1  0
 26  4  1  0
 35 27  1  0
 25  8  1  0
 24 15  1  0
M  END
>  <Compound_ID>  (140) 
CHEMBL3897995

>  <Molecule Name>  (140) 
nan

>  <Molecular Weight>  (140) 
510.51

>  <AlogP>  (140) 
5.60

>  <Smiles>  (140) 
C[C@@](O)(c1ncc(-c2cc(F)cc(Nc3nccc(C(F)(F)F)n3)c2)s1)[C@H]1CC[C@H](C(=O)O)CC1

>  <Standard Type>  (140) 
IC50

>  <Standard Relation>  (140) 
'='

>  <Standard Units>  (140) 
nM

>  <Standard Value>  (140) 
1.0

>  <Assay ChEMBL ID>  (140) 
CHEMBL3888105

>  <Assay Description>  (140) 
Homogeneous Time-Resolved Fluorescence (HTRF) Assay: A recombinant GST-hSyk fusion protein was used to measure potency of compounds to inhibit human Syk activity. The recombinant human GST-Syk (Carna Biosciences #08-176) (5 pM final concentration) was incubated with various concentrations of the inhibitor diluted in DMSO (0.1% final concentration) for 10 minutes at room temperature in 15 mM Tris-HCl (pH 7.5), 0.01% tween 20, 2 mM DTT in 384 well plate format. To initiate the reaction the biotinylated substrate peptide (250 nM final concentration) that contains the phosphorylation site for Syk was added with magnesium (5 mM final concentration) and ATP (25 μM final concentration). Final volume of the reaction was 10 μL. Phosphorylation of the peptide was allowed to proceed for 45′ at room temperature. To quench the reaction and detect the phosphorylated product, 2 nM of a Europium-anti-phosphotyrosine antibody (Perkin Elmer #AD0161) and 70 nM SA-APC (Perkin-Elmer #CR130-100) were added together in 15 mM Tris pH 7.5, 40 mM

>  <BAO Format ID>  (140) 
BAO_0000357

>  <BAO Label>  (140) 
single protein format

>  <Assay Organism>  (140) 
Homo sapiens

>  <Target ChEMBL ID>  (140) 
CHEMBL2599

>  <Target Name>  (140) 
Tyrosine-protein kinase SYK

>  <Target Organism>  (140) 
Homo sapiens

>  <Target Type>  (140) 
SINGLE PROTEIN

>  <Document ChEMBL ID>  (140) 
CHEMBL3886579

>  <Source Description>  (140) 
BindingDB Database

>  <Document Journal>  (140) 
nan

>  <Document Year>  (140) 
2016.0

>  <Active>  (140) 
1.0

>  <bits>  (140) 
<rdkit.DataStructs.cDataStructs.ExplicitBitVect object at 0x00000193F3406110>

>  <Group>  (140) 
G2

$$$$

     RDKit          2D

 47 53  0  0  0  0  0  0  0  0999 V2000
  -12.9738   -1.2059    0.0000 C   0  0  0  0  0  0  0  0  0  0  0  0
  -11.5066   -0.8941    0.0000 O   0  0  0  0  0  0  0  0  0  0  0  0
  -10.5029   -2.0088    0.0000 C   0  0  0  0  0  0  0  0  0  0  0  0
  -10.9664   -3.4354    0.0000 C   0  0  0  0  0  0  0  0  0  0  0  0
   -9.9627   -4.5501    0.0000 C   0  0  0  0  0  0  0  0  0  0  0  0
   -8.4955   -4.2382    0.0000 C   0  0  0  0  0  0  0  0  0  0  0  0
   -7.4918   -5.3529    0.0000 N   0  0  0  0  0  0  0  0  0  0  0  0
   -7.8037   -6.8202    0.0000 N   0  0  0  0  0  0  0  0  0  0  0  0
   -6.5046   -7.5702    0.0000 C   0  0  0  0  0  0  0  0  0  0  0  0
   -6.3478   -9.0619    0.0000 C   0  0  0  0  0  0  0  0  0  0  0  0
   -4.9775   -9.6721    0.0000 C   0  0  0  0  0  0  0  0  0  0  0  0
   -7.5613   -9.9436    0.0000 C   0  0  0  0  0  0  0  0  0  0  0  0
   -5.3899   -6.5665    0.0000 C   0  0  0  0  0  0  0  0  0  0  0  0
   -6.0000   -5.1962    0.0000 C   0  0  0  0  0  0  0  0  0  0  0  0
   -5.2500   -3.8971    0.0000 N   0  0  0  0  0  0  0  0  0  0  0  0
   -3.7500   -3.8971    0.0000 C   0  0  0  0  0  0  0  0  0  0  0  0
   -3.0000   -5.1962    0.0000 O   0  0  0  0  0  0  0  0  0  0  0  0
   -3.0000   -2.5981    0.0000 N   0  0  0  0  0  0  0  0  0  0  0  0
   -1.5000   -2.5981    0.0000 C   0  0  0  0  0  0  0  0  0  0  0  0
   -0.7500   -3.8971    0.0000 C   0  0  0  0  0  0  0  0  0  0  0  0
    0.7500   -3.8971    0.0000 C   0  0  0  0  0  0  0  0  0  0  0  0
    1.5000   -2.5981    0.0000 C   0  0  0  0  0  0  0  0  0  0  0  0
    3.0000   -2.5981    0.0000 O   0  0  0  0  0  0  0  0  0  0  0  0
    3.7500   -3.8971    0.0000 C   0  0  0  0  0  0  0  0  0  0  0  0
    3.0000   -5.1962    0.0000 C   0  0  0  0  0  0  0  0  0  0  0  0
    3.7500   -6.4952    0.0000 C   0  0  0  0  0  0  0  0  0  0  0  0
    3.0000   -7.7942    0.0000 N   0  0  0  0  0  0  0  0  0  0  0  0
    3.7500   -9.0933    0.0000 C   0  0  0  0  0  0  0  0  0  0  0  0
    5.2500   -9.0933    0.0000 C   0  0  0  0  0  0  0  0  0  0  0  0
    6.0000  -10.3923    0.0000 C   0  0  0  0  0  0  0  0  0  0  0  0
    5.2500  -11.6913    0.0000 C   0  0  0  0  0  0  0  0  0  0  0  0
    5.7135  -13.1179    0.0000 N   0  0  0  0  0  0  0  0  0  0  0  0
    4.5000  -13.9996    0.0000 N   0  0  0  0  0  0  0  0  0  0  0  0
    3.2865  -13.1179    0.0000 C   0  0  0  0  0  0  0  0  0  0  0  0
    3.7500  -11.6913    0.0000 C   0  0  0  0  0  0  0  0  0  0  0  0
    3.0000  -10.3923    0.0000 C   0  0  0  0  0  0  0  0  0  0  0  0
    5.2500   -6.4952    0.0000 N   0  0  0  0  0  0  0  0  0  0  0  0
    6.0000   -5.1962    0.0000 C   0  0  0  0  0  0  0  0  0  0  0  0
    5.2500   -3.8971    0.0000 N   0  0  0  0  0  0  0  0  0  0  0  0
    0.7500   -1.2990    0.0000 C   0  0  0  0  0  0  0  0  0  0  0  0
    1.5000    0.0000    0.0000 C   0  0  0  0  0  0  0  0  0  0  0  0
    0.7500    1.2990    0.0000 C   0  0  0  0  0  0  0  0  0  0  0  0
   -0.7500    1.2990    0.0000 C   0  0  0  0  0  0  0  0  0  0  0  0
   -1.5000    0.0000    0.0000 C   0  0  0  0  0  0  0  0  0  0  0  0
   -0.7500   -1.2990    0.0000 C   0  0  0  0  0  0  0  0  0  0  0  0
   -8.0320   -2.8116    0.0000 C   0  0  0  0  0  0  0  0  0  0  0  0
   -9.0356   -1.6969    0.0000 C   0  0  0  0  0  0  0  0  0  0  0  0
  1  2  1  0
  2  3  1  0
  3  4  2  0
  4  5  1  0
  5  6  2  0
  6  7  1  0
  7  8  1  0
  8  9  2  0
  9 10  1  0
 10 11  1  0
 10 12  1  0
  9 13  1  0
 13 14  2  0
 14 15  1  0
 15 16  1  0
 16 17  2  0
 16 18  1  0
 18 19  1  0
 19 20  2  0
 20 21  1  0
 21 22  2  0
 22 23  1  0
 23 24  1  0
 24 25  2  0
 25 26  1  0
 26 27  1  0
 27 28  1  0
 28 29  2  0
 29 30  1  0
 30 31  2  0
 31 32  1  0
 32 33  1  0
 33 34  2  0
 34 35  1  0
 35 36  2  0
 26 37  2  0
 37 38  1  0
 38 39  2  0
 22 40  1  0
 40 41  2  0
 41 42  1  0
 42 43  2  0
 43 44  1  0
 44 45  2  0
  6 46  1  0
 46 47  2  0
 47  3  1  0
 14  7  1  0
 45 19  1  0
 39 24  1  0
 45 40  1  0
 36 28  1  0
 35 31  1  0
M  END
>  <Compound_ID>  (141) 
CHEMBL3912970

>  <Molecule Name>  (141) 
nan

>  <Molecular Weight>  (141) 
625.69

>  <AlogP>  (141) 
8.00

>  <Smiles>  (141) 
COc1ccc(-n2nc(C(C)C)cc2NC(=O)Nc2ccc(Oc3cc(Nc4ccc5[nH]ncc5c4)ncn3)c3ccccc23)cc1

>  <Standard Type>  (141) 
IC50

>  <Standard Relation>  (141) 
'='

>  <Standard Units>  (141) 
nM

>  <Standard Value>  (141) 
39.0

>  <Assay ChEMBL ID>  (141) 
CHEMBL3887920

>  <Assay Description>  (141) 
c-Src and Syk Enzyme Inhibition Assay: The inhibitory activities of compounds of the invention against c-Src and Syk enzymes (Invitrogen), are evaluated in a similar fashion to that described hereinabove. The relevant enzyme (3000 ng/mL or 2000 ng/mL respectively, 2.5 uL) is incubated with the test compound (either 4 ug/mL, 0.4 ug/mL, 0.04 ug/mL, or 0.004 ug/mL, 2.5 uL each) for 2 hr at RT. The FRET peptides (8 uM, 2.5 uL), and appropriate ATP solutions (2.5 uL, 800 uM for c-Src, and 60 uM ATP for Syk) are then added to the enzymes/compound mixtures and incubated for 1 hr. Development reagent (protease, 5 uL) is added for 1 hr prior to detection in a fluorescence microplate reader (Varioskan Flash, ThermoFisher Scientific).

>  <BAO Format ID>  (141) 
BAO_0000357

>  <BAO Label>  (141) 
single protein format

>  <Assay Organism>  (141) 
Homo sapiens

>  <Target ChEMBL ID>  (141) 
CHEMBL2599

>  <Target Name>  (141) 
Tyrosine-protein kinase SYK

>  <Target Organism>  (141) 
Homo sapiens

>  <Target Type>  (141) 
SINGLE PROTEIN

>  <Document ChEMBL ID>  (141) 
CHEMBL3886505

>  <Source Description>  (141) 
BindingDB Database

>  <Document Journal>  (141) 
nan

>  <Document Year>  (141) 
2016.0

>  <Active>  (141) 
1.0

>  <bits>  (141) 
<rdkit.DataStructs.cDataStructs.ExplicitBitVect object at 0x00000193F3404040>

>  <Group>  (141) 
G2

$$$$

     RDKit          2D

 29 32  0  0  0  0  0  0  0  0999 V2000
    7.5000   -2.5981    0.0000 C   0  0  0  0  0  0  0  0  0  0  0  0
    6.0000   -2.5981    0.0000 O   0  0  0  0  0  0  0  0  0  0  0  0
    5.2500   -1.2990    0.0000 C   0  0  0  0  0  0  0  0  0  0  0  0
    3.7500   -1.2990    0.0000 C   0  0  0  0  0  0  0  0  0  0  0  0
    3.0000    0.0000    0.0000 N   0  0  0  0  0  0  0  0  0  0  0  0
    1.5000    0.0000    0.0000 C   0  0  0  0  0  0  0  0  0  0  0  0
    0.7500   -1.2990    0.0000 N   0  0  0  0  0  0  0  0  0  0  0  0
   -0.7500   -1.2990    0.0000 C   0  0  0  0  0  0  0  0  0  0  0  0
   -1.5000   -2.5981    0.0000 C   0  0  0  0  0  0  0  0  0  0  0  0
   -3.0000   -2.5981    0.0000 C   0  0  0  0  0  0  0  0  0  0  0  0
   -3.7500   -3.8971    0.0000 C   0  0  0  0  0  0  0  0  0  0  0  0
   -3.0000   -5.1962    0.0000 C   0  0  0  0  0  0  0  0  0  0  0  0
   -3.7500   -6.4952    0.0000 N   0  0  0  0  0  0  0  0  0  0  0  0
   -5.2500   -6.4952    0.0000 C   0  0  0  0  0  0  0  0  0  0  0  0
   -6.0000   -7.7942    0.0000 C   0  0  0  0  0  0  0  0  0  0  0  0
   -5.2500   -9.0933    0.0000 O   0  0  0  0  0  0  0  0  0  0  0  0
   -3.7500   -9.0933    0.0000 C   0  0  0  0  0  0  0  0  0  0  0  0
   -3.0000   -7.7942    0.0000 C   0  0  0  0  0  0  0  0  0  0  0  0
   -1.5000   -5.1962    0.0000 C   0  0  0  0  0  0  0  0  0  0  0  0
   -0.7500   -3.8971    0.0000 C   0  0  0  0  0  0  0  0  0  0  0  0
   -1.5000    0.0000    0.0000 C   0  0  0  0  0  0  0  0  0  0  0  0
   -0.7500    1.2990    0.0000 C   0  0  0  0  0  0  0  0  0  0  0  0
   -1.5000    2.5981    0.0000 N   0  0  0  0  0  0  0  0  0  0  0  0
   -0.7500    3.8971    0.0000 C   0  0  0  0  0  0  0  0  0  0  0  0
    0.7500    3.8971    0.0000 N   0  0  0  0  0  0  0  0  0  0  0  0
    1.5000    5.1962    0.0000 C   0  0  0  0  0  0  0  0  0  0  0  0
    1.5000    2.5981    0.0000 C   0  0  0  0  0  0  0  0  0  0  0  0
    3.0000    2.5981    0.0000 O   0  0  0  0  0  0  0  0  0  0  0  0
    0.7500    1.2990    0.0000 C   0  0  0  0  0  0  0  0  0  0  0  0
  1  2  1  0
  2  3  1  0
  3  4  1  0
  4  5  1  0
  5  6  1  0
  6  7  2  0
  7  8  1  0
  8  9  1  0
  9 10  2  0
 10 11  1  0
 11 12  2  0
 12 13  1  0
 13 14  1  0
 14 15  1  0
 15 16  1  0
 16 17  1  0
 17 18  1  0
 12 19  1  0
 19 20  2  0
  8 21  2  0
 21 22  1  0
 22 23  1  0
 23 24  2  0
 24 25  1  0
 25 26  1  0
 25 27  1  0
 27 28  2  0
 27 29  1  0
 29  6  1  0
 20  9  1  0
 29 22  2  0
 18 13  1  0
M  END
>  <Compound_ID>  (142) 
CHEMBL3641298

>  <Molecule Name>  (142) 
nan

>  <Molecular Weight>  (142) 
395.46

>  <AlogP>  (142) 
1.89

>  <Smiles>  (142) 
COCCNc1nc(-c2ccc(N3CCOCC3)cc2)cc2ncn(C)c(=O)c12

>  <Standard Type>  (142) 
IC50

>  <Standard Relation>  (142) 
'='

>  <Standard Units>  (142) 
nM

>  <Standard Value>  (142) 
48.0

>  <Assay ChEMBL ID>  (142) 
CHEMBL3705362

>  <Assay Description>  (142) 
Mobility-Shift kinase assay: Compounds of the examples provided herein were assessed for their ability to inhibit Syk kinase by utilizing Caliper Life Sciences' proprietary LabChip technology. The off-chip incubation mobility-shift kinase assay uses a microfluidic chip to measure the conversion of a fluorescent peptide substrate to a phosphorylated product. The reaction mixture, from a microtiter plate well, is introduced through a capillary sipper onto the chip, where the nonphosphorylated substrate and phosphorylated product are separated by electrophoresis and detected via laser induced fluorescence. The signature of the fluorescence signal over time reveals the extent of the reaction. The phosphorylated product migrates through the chip faster than the non-phosphorylated substrate, and signals from the two forms of the peptide appear as distinct peaks.

>  <BAO Format ID>  (142) 
BAO_0000357

>  <BAO Label>  (142) 
single protein format

>  <Assay Organism>  (142) 
Homo sapiens

>  <Target ChEMBL ID>  (142) 
CHEMBL2599

>  <Target Name>  (142) 
Tyrosine-protein kinase SYK

>  <Target Organism>  (142) 
Homo sapiens

>  <Target Type>  (142) 
SINGLE PROTEIN

>  <Document ChEMBL ID>  (142) 
CHEMBL3639055

>  <Source Description>  (142) 
BindingDB Database

>  <Document Journal>  (142) 
nan

>  <Document Year>  (142) 
2014.0

>  <Active>  (142) 
1.0

>  <bits>  (142) 
<rdkit.DataStructs.cDataStructs.ExplicitBitVect object at 0x00000193F3407DF0>

>  <Group>  (142) 
G2

$$$$

     RDKit          2D

 34 38  0  0  0  0  0  0  0  0999 V2000
    3.0000    0.0000    0.0000 C   0  0  0  0  0  0  0  0  0  0  0  0
    1.5000    0.0000    0.0000 N   0  0  0  0  0  0  0  0  0  0  0  0
    0.7500   -1.2990    0.0000 C   0  0  0  0  0  0  0  0  0  0  0  0
   -0.7500   -1.2990    0.0000 N   0  0  0  0  0  0  0  0  0  0  0  0
   -1.5000    0.0000    0.0000 C   0  0  0  0  0  0  0  0  0  0  0  0
   -3.0000    0.0000    0.0000 C   0  0  0  0  0  0  0  0  0  0  0  0
   -3.7500    1.2990    0.0000 C   0  0  0  0  0  0  0  0  0  0  0  0
   -5.2500    1.2990    0.0000 C   0  0  0  0  0  0  0  0  0  0  0  0
   -6.0000    2.5981    0.0000 C   0  0  0  0  0  0  0  0  0  0  0  0
   -7.5000    2.5981    0.0000 C   0  0  0  0  0  0  0  0  0  0  0  0
   -8.2500    1.2990    0.0000 C   0  0  0  0  0  0  0  0  0  0  0  0
   -9.7500    1.2990    0.0000 N   0  0  0  0  0  0  0  0  0  0  0  0
  -10.5000    2.5981    0.0000 C   0  0  0  0  0  0  0  0  0  0  0  0
  -12.0000    2.5981    0.0000 C   0  0  0  0  0  0  0  0  0  0  0  0
  -12.7500    1.2990    0.0000 C   0  0  0  0  0  0  0  0  0  0  0  0
  -13.8991    0.3349    0.0000 C   0  0  0  0  0  0  0  0  0  0  0  0
  -13.8991    2.2632    0.0000 O   0  0  0  0  0  0  0  0  0  0  0  0
  -12.0000    0.0000    0.0000 C   0  0  0  0  0  0  0  0  0  0  0  0
  -10.5000    0.0000    0.0000 C   0  0  0  0  0  0  0  0  0  0  0  0
   -7.5000    0.0000    0.0000 C   0  0  0  0  0  0  0  0  0  0  0  0
   -6.0000    0.0000    0.0000 C   0  0  0  0  0  0  0  0  0  0  0  0
   -3.0000    2.5981    0.0000 N   0  0  0  0  0  0  0  0  0  0  0  0
   -1.5000    2.5981    0.0000 C   0  0  0  0  0  0  0  0  0  0  0  0
   -0.7500    3.8971    0.0000 N   0  0  0  0  0  0  0  0  0  0  0  0
   -1.5000    5.1962    0.0000 C   0  0  0  0  0  0  0  0  0  0  0  0
   -0.7500    6.4952    0.0000 C   0  0  0  0  0  0  0  0  0  0  0  0
   -1.5000    7.7942    0.0000 C   0  0  0  0  0  0  0  0  0  0  0  0
   -3.0000    7.7942    0.0000 C   0  0  0  0  0  0  0  0  0  0  0  0
   -3.7500    9.0933    0.0000 N   0  0  0  0  0  0  0  0  0  0  0  0
   -3.7500    6.4952    0.0000 C   0  0  0  0  0  0  0  0  0  0  0  0
   -3.0000    5.1962    0.0000 C   0  0  0  0  0  0  0  0  0  0  0  0
   -0.7500    1.2990    0.0000 C   0  0  0  0  0  0  0  0  0  0  0  0
    0.7500    1.2990    0.0000 C   0  0  0  0  0  0  0  0  0  0  0  0
    1.5000    2.5981    0.0000 O   0  0  0  0  0  0  0  0  0  0  0  0
  1  2  1  0
  2  3  1  0
  3  4  2  0
  4  5  1  0
  5  6  2  0
  6  7  1  0
  7  8  1  0
  8  9  2  0
  9 10  1  0
 10 11  2  0
 11 12  1  0
 12 13  1  0
 13 14  1  0
 14 15  1  0
 15 16  1  0
 15 17  1  0
 15 18  1  0
 18 19  1  0
 11 20  1  0
 20 21  2  0
  7 22  2  0
 22 23  1  0
 23 24  1  0
 25 24  1  6
 25 26  1  0
 26 27  1  0
 27 28  1  0
 28 29  1  6
 28 30  1  0
 30 31  1  0
 23 32  2  0
 32 33  1  0
 33 34  2  0
 33  2  1  0
 32  5  1  0
 21  8  1  0
 31 25  1  0
 19 12  1  0
M  END
>  <Compound_ID>  (143) 
CHEMBL3641466

>  <Molecule Name>  (143) 
nan

>  <Molecular Weight>  (143) 
462.6

>  <AlogP>  (143) 
3.03

>  <Smiles>  (143) 
Cn1cnc2cc(-c3ccc(N4CCC(C)(O)CC4)cc3)nc(N[C@H]3CC[C@@H](N)CC3)c2c1=O

>  <Standard Type>  (143) 
IC50

>  <Standard Relation>  (143) 
'='

>  <Standard Units>  (143) 
nM

>  <Standard Value>  (143) 
5.61

>  <Assay ChEMBL ID>  (143) 
CHEMBL3705362

>  <Assay Description>  (143) 
Mobility-Shift kinase assay: Compounds of the examples provided herein were assessed for their ability to inhibit Syk kinase by utilizing Caliper Life Sciences' proprietary LabChip technology. The off-chip incubation mobility-shift kinase assay uses a microfluidic chip to measure the conversion of a fluorescent peptide substrate to a phosphorylated product. The reaction mixture, from a microtiter plate well, is introduced through a capillary sipper onto the chip, where the nonphosphorylated substrate and phosphorylated product are separated by electrophoresis and detected via laser induced fluorescence. The signature of the fluorescence signal over time reveals the extent of the reaction. The phosphorylated product migrates through the chip faster than the non-phosphorylated substrate, and signals from the two forms of the peptide appear as distinct peaks.

>  <BAO Format ID>  (143) 
BAO_0000357

>  <BAO Label>  (143) 
single protein format

>  <Assay Organism>  (143) 
Homo sapiens

>  <Target ChEMBL ID>  (143) 
CHEMBL2599

>  <Target Name>  (143) 
Tyrosine-protein kinase SYK

>  <Target Organism>  (143) 
Homo sapiens

>  <Target Type>  (143) 
SINGLE PROTEIN

>  <Document ChEMBL ID>  (143) 
CHEMBL3639055

>  <Source Description>  (143) 
BindingDB Database

>  <Document Journal>  (143) 
nan

>  <Document Year>  (143) 
2014.0

>  <Active>  (143) 
1.0

>  <bits>  (143) 
<rdkit.DataStructs.cDataStructs.ExplicitBitVect object at 0x00000193F3407680>

>  <Group>  (143) 
G2

$$$$

     RDKit          2D

 32 36  0  0  0  0  0  0  0  0999 V2000
    6.0000  -10.3923    0.0000 C   0  0  0  0  0  0  0  0  0  0  0  0
    5.2500   -9.0933    0.0000 N   0  0  0  0  0  0  0  0  0  0  0  0
    3.7500   -9.0933    0.0000 C   0  0  0  0  0  0  0  0  0  0  0  0
    3.0000   -7.7942    0.0000 C   0  0  0  0  0  0  0  0  0  0  0  0
    3.7500   -6.4952    0.0000 N   0  0  0  0  0  0  0  0  0  0  0  0
    3.0000   -5.1962    0.0000 C   0  0  0  0  0  0  0  0  0  0  0  0
    3.7500   -3.8971    0.0000 C   0  0  0  0  0  0  0  0  0  0  0  0
    3.0000   -2.5981    0.0000 C   0  0  0  0  0  0  0  0  0  0  0  0
    1.5000   -2.5981    0.0000 C   0  0  0  0  0  0  0  0  0  0  0  0
    0.7500   -1.2990    0.0000 C   0  0  0  0  0  0  0  0  0  0  0  0
    1.5000    0.0000    0.0000 C   0  0  0  0  0  0  0  0  0  0  0  0
    0.7500    1.2990    0.0000 C   0  0  0  0  0  0  0  0  0  0  0  0
    1.5000    2.5981    0.0000 N   0  0  0  0  0  0  0  0  0  0  0  0
    0.7500    3.8971    0.0000 C   0  0  0  0  0  0  0  0  0  0  0  0
   -0.7500    3.8971    0.0000 N   0  0  0  0  0  0  0  0  0  0  0  0
   -1.5000    5.1962    0.0000 C   0  0  0  0  0  0  0  0  0  0  0  0
   -1.5000    2.5981    0.0000 C   0  0  0  0  0  0  0  0  0  0  0  0
   -3.0000    2.5981    0.0000 O   0  0  0  0  0  0  0  0  0  0  0  0
   -0.7500    1.2990    0.0000 C   0  0  0  0  0  0  0  0  0  0  0  0
   -1.5000    0.0000    0.0000 C   0  0  0  0  0  0  0  0  0  0  0  0
   -3.0000    0.0000    0.0000 N   0  0  0  0  0  0  0  0  0  0  0  0
   -3.8817   -1.2135    0.0000 C   0  0  0  0  0  0  0  0  0  0  0  0
   -5.3083   -0.7500    0.0000 C   0  0  0  0  0  0  0  0  0  0  0  0
   -5.3083    0.7500    0.0000 C   0  0  0  0  0  0  0  0  0  0  0  0
   -6.5218    1.6317    0.0000 C   0  0  0  0  0  0  0  0  0  0  0  0
   -6.3650    3.1235    0.0000 O   0  0  0  0  0  0  0  0  0  0  0  0
   -3.8817    1.2135    0.0000 C   0  0  0  0  0  0  0  0  0  0  0  0
   -0.7500   -1.2990    0.0000 N   0  0  0  0  0  0  0  0  0  0  0  0
    0.7500   -3.8971    0.0000 C   0  0  0  0  0  0  0  0  0  0  0  0
    1.5000   -5.1962    0.0000 C   0  0  0  0  0  0  0  0  0  0  0  0
    5.2500   -6.4952    0.0000 C   0  0  0  0  0  0  0  0  0  0  0  0
    6.0000   -7.7942    0.0000 C   0  0  0  0  0  0  0  0  0  0  0  0
  1  2  1  0
  2  3  1  0
  3  4  1  0
  4  5  1  0
  5  6  1  0
  6  7  2  0
  7  8  1  0
  8  9  2  0
  9 10  1  0
 10 11  2  0
 11 12  1  0
 12 13  1  0
 13 14  2  0
 14 15  1  0
 15 16  1  0
 15 17  1  0
 17 18  2  0
 17 19  1  0
 19 20  1  0
 20 21  1  0
 21 22  1  0
 22 23  1  0
 23 24  1  0
 24 25  1  6
 25 26  1  0
 24 27  1  0
 20 28  2  0
  9 29  1  0
 29 30  2  0
  5 31  1  0
 31 32  1  0
 32  2  1  0
 30  6  1  0
 28 10  1  0
 19 12  2  0
 27 21  1  0
M  END
>  <Compound_ID>  (144) 
CHEMBL3641375

>  <Molecule Name>  (144) 
nan

>  <Molecular Weight>  (144) 
434.54

>  <AlogP>  (144) 
1.57

>  <Smiles>  (144) 
CN1CCN(c2ccc(-c3cc4ncn(C)c(=O)c4c(N4CC[C@H](CO)C4)n3)cc2)CC1

>  <Standard Type>  (144) 
IC50

>  <Standard Relation>  (144) 
'='

>  <Standard Units>  (144) 
nM

>  <Standard Value>  (144) 
57.0

>  <Assay ChEMBL ID>  (144) 
CHEMBL3705362

>  <Assay Description>  (144) 
Mobility-Shift kinase assay: Compounds of the examples provided herein were assessed for their ability to inhibit Syk kinase by utilizing Caliper Life Sciences' proprietary LabChip technology. The off-chip incubation mobility-shift kinase assay uses a microfluidic chip to measure the conversion of a fluorescent peptide substrate to a phosphorylated product. The reaction mixture, from a microtiter plate well, is introduced through a capillary sipper onto the chip, where the nonphosphorylated substrate and phosphorylated product are separated by electrophoresis and detected via laser induced fluorescence. The signature of the fluorescence signal over time reveals the extent of the reaction. The phosphorylated product migrates through the chip faster than the non-phosphorylated substrate, and signals from the two forms of the peptide appear as distinct peaks.

>  <BAO Format ID>  (144) 
BAO_0000357

>  <BAO Label>  (144) 
single protein format

>  <Assay Organism>  (144) 
Homo sapiens

>  <Target ChEMBL ID>  (144) 
CHEMBL2599

>  <Target Name>  (144) 
Tyrosine-protein kinase SYK

>  <Target Organism>  (144) 
Homo sapiens

>  <Target Type>  (144) 
SINGLE PROTEIN

>  <Document ChEMBL ID>  (144) 
CHEMBL3639055

>  <Source Description>  (144) 
BindingDB Database

>  <Document Journal>  (144) 
nan

>  <Document Year>  (144) 
2014.0

>  <Active>  (144) 
1.0

>  <bits>  (144) 
<rdkit.DataStructs.cDataStructs.ExplicitBitVect object at 0x00000193F3407290>

>  <Group>  (144) 
G2

$$$$

     RDKit          2D

 40 45  0  0  0  0  0  0  0  0999 V2000
   -6.5218   -6.8278    0.0000 C   0  0  0  0  0  0  0  0  0  0  0  0
   -5.3083   -5.9462    0.0000 C   0  0  0  0  0  0  0  0  0  0  0  0
   -3.8817   -6.4097    0.0000 N   0  0  0  0  0  0  0  0  0  0  0  0
   -3.0000   -5.1962    0.0000 N   0  0  0  0  0  0  0  0  0  0  0  0
   -1.5000   -5.1962    0.0000 C   0  0  0  0  0  0  0  0  0  0  0  0
   -0.7500   -6.4952    0.0000 C   0  0  0  0  0  0  0  0  0  0  0  0
    0.7500   -6.4952    0.0000 C   0  0  0  0  0  0  0  0  0  0  0  0
    1.5000   -5.1962    0.0000 N   0  0  0  0  0  0  0  0  0  0  0  0
    0.7500   -3.8971    0.0000 C   0  0  0  0  0  0  0  0  0  0  0  0
    1.5000   -2.5981    0.0000 N   0  0  0  0  0  0  0  0  0  0  0  0
    0.7500   -1.2990    0.0000 C   0  0  0  0  0  0  0  0  0  0  0  0
    1.5000    0.0000    0.0000 C   0  0  0  0  0  0  0  0  0  0  0  0
    0.7500    1.2990    0.0000 C   0  0  0  0  0  0  0  0  0  0  0  0
   -0.7500    1.2990    0.0000 C   0  0  0  0  0  0  0  0  0  0  0  0
   -1.5000    0.0000    0.0000 C   0  0  0  0  0  0  0  0  0  0  0  0
   -0.7500   -1.2990    0.0000 C   0  0  0  0  0  0  0  0  0  0  0  0
   -2.9672    0.3119    0.0000 C   0  0  0  0  0  0  0  0  0  0  0  0
   -4.0819   -0.6918    0.0000 C   0  0  0  0  0  0  0  0  0  0  0  0
   -3.7701   -2.1590    0.0000 O   0  0  0  0  0  0  0  0  0  0  0  0
   -5.5085   -0.2283    0.0000 C   0  0  0  0  0  0  0  0  0  0  0  0
   -6.9757   -0.5402    0.0000 C   0  0  0  0  0  0  0  0  0  0  0  0
   -6.5122    0.8864    0.0000 C   0  0  0  0  0  0  0  0  0  0  0  0
   -3.1240    1.8037    0.0000 C   0  0  0  0  0  0  0  0  0  0  0  0
   -1.7537    2.4138    0.0000 N   0  0  0  0  0  0  0  0  0  0  0  0
   -1.4418    3.8810    0.0000 C   0  0  0  0  0  0  0  0  0  0  0  0
   -2.5565    4.8847    0.0000 C   0  0  0  0  0  0  0  0  0  0  0  0
   -3.6713    5.8884    0.0000 F   0  0  0  0  0  0  0  0  0  0  0  0
   -1.5528    5.9994    0.0000 F   0  0  0  0  0  0  0  0  0  0  0  0
   -3.5602    3.7700    0.0000 F   0  0  0  0  0  0  0  0  0  0  0  0
   -0.7500   -3.8971    0.0000 N   0  0  0  0  0  0  0  0  0  0  0  0
   -3.8817   -3.9826    0.0000 C   0  0  0  0  0  0  0  0  0  0  0  0
   -5.3083   -4.4462    0.0000 C   0  0  0  0  0  0  0  0  0  0  0  0
   -6.5218   -3.5645    0.0000 C   0  0  0  0  0  0  0  0  0  0  0  0
   -7.8921   -4.1746    0.0000 N   0  0  0  0  0  0  0  0  0  0  0  0
   -8.2040   -5.6418    0.0000 C   0  0  0  0  0  0  0  0  0  0  0  0
   -9.6958   -5.7986    0.0000 C   0  0  0  0  0  0  0  0  0  0  0  0
   -9.3839   -7.2658    0.0000 C   0  0  0  0  0  0  0  0  0  0  0  0
  -11.1223   -6.2621    0.0000 O   0  0  0  0  0  0  0  0  0  0  0  0
  -10.3059   -4.4283    0.0000 C   0  0  0  0  0  0  0  0  0  0  0  0
   -9.1911   -3.4246    0.0000 O   0  0  0  0  0  0  0  0  0  0  0  0
  1  2  1  0
  2  3  2  0
  3  4  1  0
  4  5  1  0
  5  6  2  0
  6  7  1  0
  7  8  2  0
  8  9  1  0
  9 10  1  0
 10 11  1  0
 11 12  2  0
 12 13  1  0
 13 14  2  0
 14 15  1  0
 15 16  2  0
 15 17  1  0
 17 18  1  0
 18 19  2  0
 18 20  1  0
 20 21  1  0
 21 22  1  0
 17 23  2  0
 23 24  1  0
 24 25  1  0
 25 26  1  0
 26 27  1  0
 26 28  1  0
 26 29  1  0
  9 30  2  0
  4 31  1  0
 31 32  2  0
 32 33  1  0
 33 34  1  0
 34 35  1  0
 35 36  1  0
 36 37  1  0
 36 38  1  0
 36 39  1  0
 39 40  1  0
 32  2  1  0
 40 34  1  0
 30  5  1  0
 16 11  1  0
 22 20  1  0
 24 14  1  0
M  END
>  <Compound_ID>  (145) 
CHEMBL3922748

>  <Molecule Name>  (145) 
nan

>  <Molecular Weight>  (145) 
555.56

>  <AlogP>  (145) 
4.32

>  <Smiles>  (145) 
Cc1nn(-c2ccnc(Nc3ccc4c(c3)c(C(=O)C3CC3)cn4CC(F)(F)F)n2)cc1CN1CC(C)(O)CO1

>  <Standard Type>  (145) 
IC50

>  <Standard Relation>  (145) 
'='

>  <Standard Units>  (145) 
nM

>  <Standard Value>  (145) 
14.21

>  <Assay ChEMBL ID>  (145) 
CHEMBL3887719

>  <Assay Description>  (145) 
Inhibition Assay: Compounds of the invention were initially diluted to 10 mM in 100% DMSO (CALBIOCHEM) for storage and made into kinase buffer solution to create a compound concentration ranging from 1 uM and 10 uM. Serial dilutions of compounds of the invention were dispensed into a 96-well plate (GREINER BIOSCIENCES) at 6 uL each. Purified full-length human SYK (CARNA BIOSCIENCES) were diluted in kinase buffer and added to the compound solutions and pre-incubated for 30 minutes at room temperature. Next, ATP (TEKNOVA) of Km (15 uM) and substrate solution (suggested manufacture substrates of PerkinElmer, Ulight-TK peptide for SYK) was added (12 uL each) to the wells containing the compound solution and enzyme. The reaction mixture was incubated for 1 hour. Following the incubation, the stop solution made with EDTA, water, and Lance detection buffer (PERKINELMER) was added (12 uL each) to stop phosphorylation. Following the addition of the stop solution and 5 minutes of shaking.

>  <BAO Format ID>  (145) 
BAO_0000357

>  <BAO Label>  (145) 
single protein format

>  <Assay Organism>  (145) 
Homo sapiens

>  <Target ChEMBL ID>  (145) 
CHEMBL2599

>  <Target Name>  (145) 
Tyrosine-protein kinase SYK

>  <Target Organism>  (145) 
Homo sapiens

>  <Target Type>  (145) 
SINGLE PROTEIN

>  <Document ChEMBL ID>  (145) 
CHEMBL3886420

>  <Source Description>  (145) 
BindingDB Database

>  <Document Journal>  (145) 
nan

>  <Document Year>  (145) 
2015.0

>  <Active>  (145) 
1.0

>  <bits>  (145) 
<rdkit.DataStructs.cDataStructs.ExplicitBitVect object at 0x00000193F3404EB0>

>  <Group>  (145) 
G2

$$$$

     RDKit          2D

 35 40  0  0  0  0  0  0  0  0999 V2000
  -11.8676   12.2542    0.0000 C   0  0  0  0  0  0  0  0  0  0  0  0
  -12.1795   10.7870    0.0000 O   0  0  0  0  0  0  0  0  0  0  0  0
  -11.0647    9.7833    0.0000 C   0  0  0  0  0  0  0  0  0  0  0  0
  -11.3766    8.3160    0.0000 C   0  0  0  0  0  0  0  0  0  0  0  0
  -10.2619    7.3123    0.0000 N   0  0  0  0  0  0  0  0  0  0  0  0
   -8.8353    7.7759    0.0000 C   0  0  0  0  0  0  0  0  0  0  0  0
   -7.7206    6.7722    0.0000 C   0  0  0  0  0  0  0  0  0  0  0  0
   -8.0325    5.3050    0.0000 N   0  0  0  0  0  0  0  0  0  0  0  0
   -6.9177    4.3013    0.0000 C   0  0  0  0  0  0  0  0  0  0  0  0
   -7.2296    2.8340    0.0000 C   0  0  0  0  0  0  0  0  0  0  0  0
   -6.1149    1.8303    0.0000 C   0  0  0  0  0  0  0  0  0  0  0  0
   -4.6883    2.2939    0.0000 C   0  0  0  0  0  0  0  0  0  0  0  0
   -3.5736    1.2902    0.0000 N   0  0  0  0  0  0  0  0  0  0  0  0
   -2.1470    1.7537    0.0000 C   0  0  0  0  0  0  0  0  0  0  0  0
   -1.8351    3.2209    0.0000 N   0  0  0  0  0  0  0  0  0  0  0  0
   -0.4086    3.6844    0.0000 C   0  0  0  0  0  0  0  0  0  0  0  0
   -0.0967    5.1517    0.0000 C   0  0  0  0  0  0  0  0  0  0  0  0
    1.3299    5.6152    0.0000 C   0  0  0  0  0  0  0  0  0  0  0  0
    1.6418    7.0824    0.0000 C   0  0  0  0  0  0  0  0  0  0  0  0
    0.5271    8.0861    0.0000 C   0  0  0  0  0  0  0  0  0  0  0  0
    0.5271    9.5861    0.0000 C   0  0  0  0  0  0  0  0  0  0  0  0
   -0.8995   10.0496    0.0000 N   0  0  0  0  0  0  0  0  0  0  0  0
   -1.7812    8.8361    0.0000 N   0  0  0  0  0  0  0  0  0  0  0  0
   -0.8995    7.6226    0.0000 C   0  0  0  0  0  0  0  0  0  0  0  0
   -1.2114    6.1554    0.0000 C   0  0  0  0  0  0  0  0  0  0  0  0
    0.7062    2.6807    0.0000 C   0  0  0  0  0  0  0  0  0  0  0  0
    0.3943    1.2135    0.0000 N   0  0  0  0  0  0  0  0  0  0  0  0
    1.2760    0.0000    0.0000 C   0  0  0  0  0  0  0  0  0  0  0  0
    0.3943   -1.2135    0.0000 C   0  0  0  0  0  0  0  0  0  0  0  0
   -1.0323   -0.7500    0.0000 N   0  0  0  0  0  0  0  0  0  0  0  0
   -1.0323    0.7500    0.0000 C   0  0  0  0  0  0  0  0  0  0  0  0
   -4.3764    3.7611    0.0000 C   0  0  0  0  0  0  0  0  0  0  0  0
   -5.4912    4.7648    0.0000 C   0  0  0  0  0  0  0  0  0  0  0  0
   -9.4590    4.8414    0.0000 C   0  0  0  0  0  0  0  0  0  0  0  0
  -10.5738    5.8451    0.0000 C   0  0  0  0  0  0  0  0  0  0  0  0
  1  2  1  0
  2  3  1  0
  3  4  1  0
  4  5  1  0
  5  6  1  0
  6  7  1  0
  7  8  1  0
  8  9  1  0
  9 10  2  0
 10 11  1  0
 11 12  2  0
 12 13  1  0
 13 14  1  0
 14 15  2  0
 15 16  1  0
 16 17  1  0
 17 18  2  0
 18 19  1  0
 19 20  2  0
 20 21  1  0
 21 22  2  0
 22 23  1  0
 23 24  1  0
 24 25  2  0
 16 26  2  0
 26 27  1  0
 27 28  1  0
 28 29  2  0
 29 30  1  0
 30 31  2  0
 12 32  1  0
 32 33  2  0
  8 34  1  0
 34 35  1  0
 35  5  1  0
 33  9  1  0
 31 14  1  0
 25 17  1  0
 31 27  1  0
 24 20  1  0
M  END
>  <Compound_ID>  (146) 
CHEMBL4638089

>  <Molecule Name>  (146) 
nan

>  <Molecular Weight>  (146) 
468.57

>  <AlogP>  (146) 
3.78

>  <Smiles>  (146) 
COCCN1CCN(c2ccc(Nc3nc(-c4ccc5cn[nH]c5c4)cn4ccnc34)cc2)CC1

>  <Standard Type>  (146) 
IC50

>  <Standard Relation>  (146) 
'='

>  <Standard Units>  (146) 
nM

>  <Standard Value>  (146) 
0.9

>  <Assay ChEMBL ID>  (146) 
CHEMBL4605675

>  <Assay Description>  (146) 
Inhibition of SYK (unknown origin) using XL665-labeled peptide as substrate in presence of ATP measured after 30 mins by TR-FRET assay

>  <BAO Format ID>  (146) 
BAO_0000357

>  <BAO Label>  (146) 
single protein format

>  <Assay Organism>  (146) 
Homo sapiens

>  <Target ChEMBL ID>  (146) 
CHEMBL2599

>  <Target Name>  (146) 
Tyrosine-protein kinase SYK

>  <Target Organism>  (146) 
Homo sapiens

>  <Target Type>  (146) 
SINGLE PROTEIN

>  <Document ChEMBL ID>  (146) 
CHEMBL4602710

>  <Source Description>  (146) 
Scientific Literature

>  <Document Journal>  (146) 
ACS Med Chem Lett

>  <Document Year>  (146) 
2020.0

>  <Active>  (146) 
1.0

>  <bits>  (146) 
<rdkit.DataStructs.cDataStructs.ExplicitBitVect object at 0x00000193F3406030>

>  <Group>  (146) 
G2

$$$$

     RDKit          2D

 35 40  0  0  0  0  0  0  0  0999 V2000
    1.8478   -6.4639    0.0000 C   0  0  0  0  0  0  0  0  0  0  0  0
    2.0046   -4.9721    0.0000 C   0  0  0  0  0  0  0  0  0  0  0  0
    3.3037   -4.2221    0.0000 N   0  0  0  0  0  0  0  0  0  0  0  0
    2.9918   -2.7549    0.0000 N   0  0  0  0  0  0  0  0  0  0  0  0
    1.5000   -2.5981    0.0000 C   0  0  0  0  0  0  0  0  0  0  0  0
    0.7500   -1.2990    0.0000 C   0  0  0  0  0  0  0  0  0  0  0  0
    1.5000    0.0000    0.0000 C   0  0  0  0  0  0  0  0  0  0  0  0
    0.7500    1.2990    0.0000 C   0  0  0  0  0  0  0  0  0  0  0  0
   -0.7500    1.2990    0.0000 C   0  0  0  0  0  0  0  0  0  0  0  0
   -1.5000    0.0000    0.0000 C   0  0  0  0  0  0  0  0  0  0  0  0
   -0.7500   -1.2990    0.0000 C   0  0  0  0  0  0  0  0  0  0  0  0
   -2.9672    0.3119    0.0000 C   0  0  0  0  0  0  0  0  0  0  0  0
   -4.0819   -0.6918    0.0000 C   0  0  0  0  0  0  0  0  0  0  0  0
   -5.5492   -0.3800    0.0000 N   0  0  0  0  0  0  0  0  0  0  0  0
   -6.2992   -1.6790    0.0000 C   0  0  0  0  0  0  0  0  0  0  0  0
   -7.7664   -1.9909    0.0000 C   0  0  0  0  0  0  0  0  0  0  0  0
   -8.7701   -0.8761    0.0000 N   0  0  0  0  0  0  0  0  0  0  0  0
  -10.2619   -1.0329    0.0000 C   0  0  0  0  0  0  0  0  0  0  0  0
  -10.8720    0.3374    0.0000 C   0  0  0  0  0  0  0  0  0  0  0  0
  -12.3392    0.6492    0.0000 C   0  0  0  0  0  0  0  0  0  0  0  0
  -12.8027    2.0758    0.0000 N   0  0  0  0  0  0  0  0  0  0  0  0
  -14.2699    2.3877    0.0000 C   0  0  0  0  0  0  0  0  0  0  0  0
  -11.7990    3.1905    0.0000 C   0  0  0  0  0  0  0  0  0  0  0  0
   -9.7572    1.3411    0.0000 C   0  0  0  0  0  0  0  0  0  0  0  0
   -9.9140    2.8329    0.0000 C   0  0  0  0  0  0  0  0  0  0  0  0
   -8.4582    0.5911    0.0000 N   0  0  0  0  0  0  0  0  0  0  0  0
   -8.2299   -3.4175    0.0000 C   0  0  0  0  0  0  0  0  0  0  0  0
   -7.2262   -4.5322    0.0000 C   0  0  0  0  0  0  0  0  0  0  0  0
   -5.7590   -4.2203    0.0000 N   0  0  0  0  0  0  0  0  0  0  0  0
   -5.2955   -2.7937    0.0000 C   0  0  0  0  0  0  0  0  0  0  0  0
   -3.9251   -2.1836    0.0000 N   0  0  0  0  0  0  0  0  0  0  0  0
   -3.1240    1.8037    0.0000 C   0  0  0  0  0  0  0  0  0  0  0  0
   -1.7537    2.4138    0.0000 N   0  0  0  0  0  0  0  0  0  0  0  0
   -1.4418    3.8810    0.0000 C   0  0  0  0  0  0  0  0  0  0  0  0
    0.8899   -3.9684    0.0000 O   0  0  0  0  0  0  0  0  0  0  0  0
  1  2  1  0
  2  3  2  0
  3  4  1  0
  4  5  2  0
  5  6  1  0
  6  7  2  0
  7  8  1  0
  8  9  2  0
  9 10  1  0
 10 11  2  0
 10 12  1  0
 12 13  1  0
 13 14  2  0
 14 15  1  0
 15 16  2  0
 16 17  1  0
 17 18  1  0
 18 19  2  0
 19 20  1  0
 20 21  1  0
 21 22  1  0
 21 23  1  0
 19 24  1  0
 24 25  1  0
 24 26  2  0
 16 27  1  0
 27 28  2  0
 28 29  1  0
 29 30  2  0
 30 31  1  0
 12 32  2  0
 32 33  1  0
 33 34  1  0
  5 35  1  0
 35  2  1  0
 11  6  1  0
 31 13  1  0
 33  9  1  0
 30 15  1  0
 26 17  1  0
M  END
>  <Compound_ID>  (147) 
CHEMBL4762995

>  <Molecule Name>  (147) 
nan

>  <Molecular Weight>  (147) 
467.54

>  <AlogP>  (147) 
4.03

>  <Smiles>  (147) 
Cc1nnc(-c2ccc3c(c2)c(-c2nc4c(-n5cc(CN(C)C)c(C)n5)ccnc4[nH]2)cn3C)o1

>  <Standard Type>  (147) 
IC50

>  <Standard Relation>  (147) 
'='

>  <Standard Units>  (147) 
nM

>  <Standard Value>  (147) 
0.098

>  <Assay ChEMBL ID>  (147) 
CHEMBL4669219

>  <Assay Description>  (147) 
Inhibition of SYK (unknown origin)

>  <BAO Format ID>  (147) 
BAO_0000357

>  <BAO Label>  (147) 
single protein format

>  <Assay Organism>  (147) 
Homo sapiens

>  <Target ChEMBL ID>  (147) 
CHEMBL2599

>  <Target Name>  (147) 
Tyrosine-protein kinase SYK

>  <Target Organism>  (147) 
Homo sapiens

>  <Target Type>  (147) 
SINGLE PROTEIN

>  <Document ChEMBL ID>  (147) 
CHEMBL4665716

>  <Source Description>  (147) 
Scientific Literature

>  <Document Journal>  (147) 
Bioorg Med Chem Lett

>  <Document Year>  (147) 
2020.0

>  <Active>  (147) 
1.0

>  <bits>  (147) 
<rdkit.DataStructs.cDataStructs.ExplicitBitVect object at 0x00000193F3407300>

>  <Group>  (147) 
G2

$$$$

     RDKit          2D

 33 37  0  0  0  0  0  0  0  0999 V2000
   -6.9199   -4.5797    0.0000 C   0  0  0  0  0  0  0  0  0  0  0  0
   -5.4933   -4.1162    0.0000 N   0  0  0  0  0  0  0  0  0  0  0  0
   -5.1814   -2.6490    0.0000 C   0  0  0  0  0  0  0  0  0  0  0  0
   -3.7548   -2.1855    0.0000 C   0  0  0  0  0  0  0  0  0  0  0  0
   -2.6401   -3.1891    0.0000 C   0  0  0  0  0  0  0  0  0  0  0  0
   -1.2135   -2.7256    0.0000 C   0  0  0  0  0  0  0  0  0  0  0  0
   -0.0000   -3.6073    0.0000 N   0  0  0  0  0  0  0  0  0  0  0  0
    1.2135   -2.7256    0.0000 N   0  0  0  0  0  0  0  0  0  0  0  0
    2.6401   -3.1891    0.0000 C   0  0  0  0  0  0  0  0  0  0  0  0
    3.7548   -2.1855    0.0000 C   0  0  0  0  0  0  0  0  0  0  0  0
    5.1814   -2.6490    0.0000 N   0  0  0  0  0  0  0  0  0  0  0  0
    5.4933   -4.1162    0.0000 C   0  0  0  0  0  0  0  0  0  0  0  0
    6.7923   -4.8662    0.0000 N   0  0  0  0  0  0  0  0  0  0  0  0
    6.4805   -6.3334    0.0000 C   0  0  0  0  0  0  0  0  0  0  0  0
    4.9887   -6.4902    0.0000 C   0  0  0  0  0  0  0  0  0  0  0  0
    4.2387   -7.7893    0.0000 C   0  0  0  0  0  0  0  0  0  0  0  0
    2.7387   -7.7893    0.0000 O   0  0  0  0  0  0  0  0  0  0  0  0
    4.9887   -9.0883    0.0000 N   0  0  0  0  0  0  0  0  0  0  0  0
    4.2387  -10.3873    0.0000 C   0  0  0  0  0  0  0  0  0  0  0  0
    5.5377  -11.1373    0.0000 C   0  0  0  0  0  0  0  0  0  0  0  0
    2.9396   -9.6373    0.0000 C   0  0  0  0  0  0  0  0  0  0  0  0
    3.4887  -11.6864    0.0000 C   0  0  0  0  0  0  0  0  0  0  0  0
    1.9887  -11.6864    0.0000 O   0  0  0  0  0  0  0  0  0  0  0  0
    4.3786   -5.1199    0.0000 C   0  0  0  0  0  0  0  0  0  0  0  0
    2.9520   -4.6564    0.0000 N   0  0  0  0  0  0  0  0  0  0  0  0
    0.7500   -1.2990    0.0000 C   0  0  0  0  0  0  0  0  0  0  0  0
    1.5000    0.0000    0.0000 C   0  0  0  0  0  0  0  0  0  0  0  0
    0.7500    1.2990    0.0000 C   0  0  0  0  0  0  0  0  0  0  0  0
   -0.7500    1.2990    0.0000 C   0  0  0  0  0  0  0  0  0  0  0  0
   -1.5000    0.0000    0.0000 C   0  0  0  0  0  0  0  0  0  0  0  0
   -0.7500   -1.2990    0.0000 C   0  0  0  0  0  0  0  0  0  0  0  0
   -2.9520   -4.6564    0.0000 C   0  0  0  0  0  0  0  0  0  0  0  0
   -4.3786   -5.1199    0.0000 C   0  0  0  0  0  0  0  0  0  0  0  0
  1  2  1  0
  2  3  1  0
  3  4  1  0
  4  5  1  0
  5  6  1  0
  6  7  2  0
  7  8  1  0
  8  9  1  0
  9 10  2  0
 10 11  1  0
 11 12  2  0
 12 13  1  0
 13 14  1  0
 14 15  2  0
 15 16  1  0
 16 17  2  0
 16 18  1  0
 18 19  1  0
 19 20  1  0
 19 21  1  0
 19 22  1  0
 22 23  1  0
 15 24  1  0
 24 25  2  0
  8 26  1  0
 26 27  2  0
 27 28  1  0
 28 29  2  0
 29 30  1  0
 30 31  2  0
  5 32  1  0
 32 33  1  0
 33  2  1  0
 31  6  1  0
 25  9  1  0
 31 26  1  0
 24 12  1  0
M  END
>  <Compound_ID>  (148) 
CHEMBL2347999

>  <Molecule Name>  (148) 
nan

>  <Molecular Weight>  (148) 
447.54

>  <AlogP>  (148) 
2.61

>  <Smiles>  (148) 
CN1CCC(c2nn(-c3cnc4[nH]cc(C(=O)NC(C)(C)CO)c4n3)c3ccccc23)CC1

>  <Standard Type>  (148) 
IC50

>  <Standard Relation>  (148) 
'='

>  <Standard Units>  (148) 
nM

>  <Standard Value>  (148) 
19.0

>  <Assay ChEMBL ID>  (148) 
CHEMBL2350855

>  <Assay Description>  (148) 
Inhibition of human recombinant truncated SYK (360 to 365 amino acid residues) using N-terminally biotinylated EPEGDYEEVLE peptide as substrate assessed as inhibition of [33P]-ATP incorporation incubated for 10 mins prior to substrate addition measured after 15 mins by scintillation counting

>  <BAO Format ID>  (148) 
BAO_0000357

>  <BAO Label>  (148) 
single protein format

>  <Assay Organism>  (148) 
Homo sapiens

>  <Target ChEMBL ID>  (148) 
CHEMBL2599

>  <Target Name>  (148) 
Tyrosine-protein kinase SYK

>  <Target Organism>  (148) 
Homo sapiens

>  <Target Type>  (148) 
SINGLE PROTEIN

>  <Document ChEMBL ID>  (148) 
CHEMBL2346624

>  <Source Description>  (148) 
Scientific Literature

>  <Document Journal>  (148) 
J Med Chem

>  <Document Year>  (148) 
2013.0

>  <Active>  (148) 
1.0

>  <bits>  (148) 
<rdkit.DataStructs.cDataStructs.ExplicitBitVect object at 0x00000193F3404DD0>

>  <Group>  (148) 
G2

$$$$

     RDKit          2D

 23 26  0  0  0  0  0  0  0  0999 V2000
   -3.5736    1.2902    0.0000 Cl  0  0  0  0  0  0  0  0  0  0  0  0
   -2.1470    1.7537    0.0000 C   0  0  0  0  0  0  0  0  0  0  0  0
   -1.8351    3.2209    0.0000 C   0  0  0  0  0  0  0  0  0  0  0  0
   -0.4086    3.6844    0.0000 C   0  0  0  0  0  0  0  0  0  0  0  0
   -0.0967    5.1517    0.0000 N   0  0  0  0  0  0  0  0  0  0  0  0
    1.3299    5.6152    0.0000 C   0  0  0  0  0  0  0  0  0  0  0  0
    2.4446    4.6115    0.0000 N   0  0  0  0  0  0  0  0  0  0  0  0
    3.8712    5.0750    0.0000 C   0  0  0  0  0  0  0  0  0  0  0  0
    4.1831    6.5422    0.0000 C   0  0  0  0  0  0  0  0  0  0  0  0
    3.0684    7.5459    0.0000 C   0  0  0  0  0  0  0  0  0  0  0  0
    3.3802    9.0132    0.0000 C   0  0  0  0  0  0  0  0  0  0  0  0
    4.8068    9.4767    0.0000 C   0  0  0  0  0  0  0  0  0  0  0  0
    5.1187   10.9439    0.0000 C   0  0  0  0  0  0  0  0  0  0  0  0
    4.0040   11.9476    0.0000 C   0  0  0  0  0  0  0  0  0  0  0  0
    2.5774   11.4841    0.0000 C   0  0  0  0  0  0  0  0  0  0  0  0
    2.2655   10.0169    0.0000 N   0  0  0  0  0  0  0  0  0  0  0  0
    1.6418    7.0824    0.0000 N   0  0  0  0  0  0  0  0  0  0  0  0
    0.7062    2.6807    0.0000 C   0  0  0  0  0  0  0  0  0  0  0  0
    0.3943    1.2135    0.0000 C   0  0  0  0  0  0  0  0  0  0  0  0
    1.2760    0.0000    0.0000 N   0  0  0  0  0  0  0  0  0  0  0  0
    0.3943   -1.2135    0.0000 C   0  0  0  0  0  0  0  0  0  0  0  0
   -1.0323   -0.7500    0.0000 C   0  0  0  0  0  0  0  0  0  0  0  0
   -1.0323    0.7500    0.0000 C   0  0  0  0  0  0  0  0  0  0  0  0
  1  2  1  0
  2  3  2  0
  3  4  1  0
  4  5  1  0
  5  6  1  0
  6  7  2  0
  7  8  1  0
  8  9  2  0
  9 10  1  0
 10 11  1  0
 11 12  2  0
 12 13  1  0
 13 14  2  0
 14 15  1  0
 15 16  2  0
 10 17  2  0
  4 18  2  0
 18 19  1  0
 19 20  1  0
 20 21  1  0
 21 22  2  0
 22 23  1  0
 23  2  1  0
 17  6  1  0
 23 19  2  0
 16 11  1  0
M  END
>  <Compound_ID>  (149) 
CHEMBL3643769

>  <Molecule Name>  (149) 
nan

>  <Molecular Weight>  (149) 
321.77

>  <AlogP>  (149) 
4.42

>  <Smiles>  (149) 
Clc1cc(Nc2nccc(-c3ccccn3)n2)cc2[nH]ccc12

>  <Standard Type>  (149) 
IC50

>  <Standard Relation>  (149) 
'='

>  <Standard Units>  (149) 
nM

>  <Standard Value>  (149) 
54.0

>  <Assay ChEMBL ID>  (149) 
CHEMBL3705803

>  <Assay Description>  (149) 
Kinase Glo Luminescence Kinase Assay: Recombinant human Syk (amino acids 342-635) was expressed as a fusion protein with an N-terminal GST tag, affinity-purified and deep-frozen at a concentration of approx. 50-100 uM in test buffer (25 mM HEPES pH7.5; 25 mM MgCl2; 5 mM MnCl2; 50 mM KCl; 0.2% BSA; 0.01% CHAPS; 100 uM Na3VO4; 0.5 mM DTT) and 10% glycerol at -80 C until use. The catalytic activity of the GST-Syk kinase fusion protein was determined using the Kinase Glo Luminescence Kinase test (Promega; V6712). In this homogeneous test the amount of ATP remaining after the kinase reaction is quantified by a luciferin-luciferase reaction using luminescence. The luminescence signal obtained correlates with the amount of ATP still present and thus correlates inversely with the activity of the protein kinase. The test compounds were dissolved in 100% DMSO at a concentration of 10 mM and diluted in DMSO to a concentration of 1 mM.

>  <BAO Format ID>  (149) 
BAO_0000357

>  <BAO Label>  (149) 
single protein format

>  <Assay Organism>  (149) 
Homo sapiens

>  <Target ChEMBL ID>  (149) 
CHEMBL2599

>  <Target Name>  (149) 
Tyrosine-protein kinase SYK

>  <Target Organism>  (149) 
Homo sapiens

>  <Target Type>  (149) 
SINGLE PROTEIN

>  <Document ChEMBL ID>  (149) 
CHEMBL3638486

>  <Source Description>  (149) 
BindingDB Database

>  <Document Journal>  (149) 
nan

>  <Document Year>  (149) 
2014.0

>  <Active>  (149) 
1.0

>  <bits>  (149) 
<rdkit.DataStructs.cDataStructs.ExplicitBitVect object at 0x00000193F3404AC0>

>  <Group>  (149) 
G2

$$$$

     RDKit          2D

 24 27  0  0  0  0  0  0  0  0999 V2000
   -3.5736    1.2902    0.0000 C   0  0  0  0  0  0  0  0  0  0  0  0
   -2.1470    1.7537    0.0000 C   0  0  0  0  0  0  0  0  0  0  0  0
   -1.8351    3.2209    0.0000 C   0  0  0  0  0  0  0  0  0  0  0  0
   -0.4086    3.6844    0.0000 C   0  0  0  0  0  0  0  0  0  0  0  0
   -0.0967    5.1517    0.0000 N   0  0  0  0  0  0  0  0  0  0  0  0
    1.3299    5.6152    0.0000 C   0  0  0  0  0  0  0  0  0  0  0  0
    2.4446    4.6115    0.0000 N   0  0  0  0  0  0  0  0  0  0  0  0
    3.8712    5.0750    0.0000 C   0  0  0  0  0  0  0  0  0  0  0  0
    4.1831    6.5422    0.0000 C   0  0  0  0  0  0  0  0  0  0  0  0
    3.0684    7.5459    0.0000 C   0  0  0  0  0  0  0  0  0  0  0  0
    3.3802    9.0132    0.0000 C   0  0  0  0  0  0  0  0  0  0  0  0
    4.8068    9.4767    0.0000 C   0  0  0  0  0  0  0  0  0  0  0  0
    5.1187   10.9439    0.0000 C   0  0  0  0  0  0  0  0  0  0  0  0
    4.0040   11.9476    0.0000 C   0  0  0  0  0  0  0  0  0  0  0  0
    2.5774   11.4841    0.0000 C   0  0  0  0  0  0  0  0  0  0  0  0
    2.2655   10.0169    0.0000 N   0  0  0  0  0  0  0  0  0  0  0  0
    1.6418    7.0824    0.0000 N   0  0  0  0  0  0  0  0  0  0  0  0
    0.7062    2.6807    0.0000 C   0  0  0  0  0  0  0  0  0  0  0  0
    0.3943    1.2135    0.0000 C   0  0  0  0  0  0  0  0  0  0  0  0
    1.2760    0.0000    0.0000 O   0  0  0  0  0  0  0  0  0  0  0  0
    0.3943   -1.2135    0.0000 C   0  0  0  0  0  0  0  0  0  0  0  0
    0.8578   -2.6401    0.0000 O   0  0  0  0  0  0  0  0  0  0  0  0
   -1.0323   -0.7500    0.0000 N   0  0  0  0  0  0  0  0  0  0  0  0
   -1.0323    0.7500    0.0000 C   0  0  0  0  0  0  0  0  0  0  0  0
  1  2  1  0
  2  3  2  0
  3  4  1  0
  4  5  1  0
  5  6  1  0
  6  7  2  0
  7  8  1  0
  8  9  2  0
  9 10  1  0
 10 11  1  0
 11 12  2  0
 12 13  1  0
 13 14  2  0
 14 15  1  0
 15 16  2  0
 10 17  2  0
  4 18  2  0
 18 19  1  0
 19 20  1  0
 20 21  1  0
 21 22  2  0
 21 23  1  0
 23 24  1  0
 24  2  1  0
 17  6  1  0
 24 19  2  0
 16 11  1  0
M  END
>  <Compound_ID>  (150) 
CHEMBL3643729

>  <Molecule Name>  (150) 
nan

>  <Molecular Weight>  (150) 
319.32

>  <AlogP>  (150) 
3.03

>  <Smiles>  (150) 
Cc1cc(Nc2nccc(-c3ccccn3)n2)cc2oc(=O)[nH]c12

>  <Standard Type>  (150) 
IC50

>  <Standard Relation>  (150) 
'='

>  <Standard Units>  (150) 
nM

>  <Standard Value>  (150) 
17.0

>  <Assay ChEMBL ID>  (150) 
CHEMBL3705803

>  <Assay Description>  (150) 
Kinase Glo Luminescence Kinase Assay: Recombinant human Syk (amino acids 342-635) was expressed as a fusion protein with an N-terminal GST tag, affinity-purified and deep-frozen at a concentration of approx. 50-100 uM in test buffer (25 mM HEPES pH7.5; 25 mM MgCl2; 5 mM MnCl2; 50 mM KCl; 0.2% BSA; 0.01% CHAPS; 100 uM Na3VO4; 0.5 mM DTT) and 10% glycerol at -80 C until use. The catalytic activity of the GST-Syk kinase fusion protein was determined using the Kinase Glo Luminescence Kinase test (Promega; V6712). In this homogeneous test the amount of ATP remaining after the kinase reaction is quantified by a luciferin-luciferase reaction using luminescence. The luminescence signal obtained correlates with the amount of ATP still present and thus correlates inversely with the activity of the protein kinase. The test compounds were dissolved in 100% DMSO at a concentration of 10 mM and diluted in DMSO to a concentration of 1 mM.

>  <BAO Format ID>  (150) 
BAO_0000357

>  <BAO Label>  (150) 
single protein format

>  <Assay Organism>  (150) 
Homo sapiens

>  <Target ChEMBL ID>  (150) 
CHEMBL2599

>  <Target Name>  (150) 
Tyrosine-protein kinase SYK

>  <Target Organism>  (150) 
Homo sapiens

>  <Target Type>  (150) 
SINGLE PROTEIN

>  <Document ChEMBL ID>  (150) 
CHEMBL3638486

>  <Source Description>  (150) 
BindingDB Database

>  <Document Journal>  (150) 
nan

>  <Document Year>  (150) 
2014.0

>  <Active>  (150) 
1.0

>  <bits>  (150) 
<rdkit.DataStructs.cDataStructs.ExplicitBitVect object at 0x00000193F3405A80>

>  <Group>  (150) 
G2

$$$$

     RDKit          2D

 26 29  0  0  0  0  0  0  0  0999 V2000
   -4.3786   -5.1199    0.0000 C   0  0  0  0  0  0  0  0  0  0  0  0
   -2.9520   -4.6564    0.0000 N   0  0  0  0  0  0  0  0  0  0  0  0
   -2.6401   -3.1891    0.0000 C   0  0  0  0  0  0  0  0  0  0  0  0
   -3.7548   -2.1855    0.0000 O   0  0  0  0  0  0  0  0  0  0  0  0
   -1.2135   -2.7256    0.0000 C   0  0  0  0  0  0  0  0  0  0  0  0
   -0.0000   -3.6073    0.0000 C   0  0  0  0  0  0  0  0  0  0  0  0
    1.2135   -2.7256    0.0000 N   0  0  0  0  0  0  0  0  0  0  0  0
    0.7500   -1.2990    0.0000 C   0  0  0  0  0  0  0  0  0  0  0  0
    1.5000    0.0000    0.0000 C   0  0  0  0  0  0  0  0  0  0  0  0
    0.7500    1.2990    0.0000 C   0  0  0  0  0  0  0  0  0  0  0  0
   -0.7500    1.2990    0.0000 C   0  0  0  0  0  0  0  0  0  0  0  0
   -1.5000    2.5981    0.0000 N   0  0  0  0  0  0  0  0  0  0  0  0
   -0.7500    3.8971    0.0000 C   0  0  0  0  0  0  0  0  0  0  0  0
    0.7500    3.8971    0.0000 N   0  0  0  0  0  0  0  0  0  0  0  0
    1.5000    5.1962    0.0000 C   0  0  0  0  0  0  0  0  0  0  0  0
    0.7500    6.4952    0.0000 C   0  0  0  0  0  0  0  0  0  0  0  0
   -0.7500    6.4952    0.0000 C   0  0  0  0  0  0  0  0  0  0  0  0
   -1.5000    7.7942    0.0000 C   0  0  0  0  0  0  0  0  0  0  0  0
   -0.7500    9.0933    0.0000 C   0  0  0  0  0  0  0  0  0  0  0  0
   -1.5000   10.3923    0.0000 C   0  0  0  0  0  0  0  0  0  0  0  0
   -3.0000   10.3923    0.0000 C   0  0  0  0  0  0  0  0  0  0  0  0
   -3.7500    9.0933    0.0000 C   0  0  0  0  0  0  0  0  0  0  0  0
   -3.0000    7.7942    0.0000 N   0  0  0  0  0  0  0  0  0  0  0  0
   -1.5000    5.1962    0.0000 N   0  0  0  0  0  0  0  0  0  0  0  0
   -1.5000    0.0000    0.0000 C   0  0  0  0  0  0  0  0  0  0  0  0
   -0.7500   -1.2990    0.0000 C   0  0  0  0  0  0  0  0  0  0  0  0
  1  2  1  0
  2  3  1  0
  3  4  2  0
  3  5  1  0
  5  6  2  0
  6  7  1  0
  7  8  1  0
  8  9  2  0
  9 10  1  0
 10 11  2  0
 11 12  1  0
 12 13  1  0
 13 14  2  0
 14 15  1  0
 15 16  2  0
 16 17  1  0
 17 18  1  0
 18 19  2  0
 19 20  1  0
 20 21  2  0
 21 22  1  0
 22 23  2  0
 17 24  2  0
 11 25  1  0
 25 26  2  0
 26  5  1  0
 26  8  1  0
 24 13  1  0
 23 18  1  0
M  END
>  <Compound_ID>  (151) 
CHEMBL3643816

>  <Molecule Name>  (151) 
nan

>  <Molecular Weight>  (151) 
344.38

>  <AlogP>  (151) 
3.12

>  <Smiles>  (151) 
CNC(=O)c1c[nH]c2ccc(Nc3nccc(-c4ccccn4)n3)cc12

>  <Standard Type>  (151) 
IC50

>  <Standard Relation>  (151) 
'='

>  <Standard Units>  (151) 
nM

>  <Standard Value>  (151) 
17.7

>  <Assay ChEMBL ID>  (151) 
CHEMBL3705803

>  <Assay Description>  (151) 
Kinase Glo Luminescence Kinase Assay: Recombinant human Syk (amino acids 342-635) was expressed as a fusion protein with an N-terminal GST tag, affinity-purified and deep-frozen at a concentration of approx. 50-100 uM in test buffer (25 mM HEPES pH7.5; 25 mM MgCl2; 5 mM MnCl2; 50 mM KCl; 0.2% BSA; 0.01% CHAPS; 100 uM Na3VO4; 0.5 mM DTT) and 10% glycerol at -80 C until use. The catalytic activity of the GST-Syk kinase fusion protein was determined using the Kinase Glo Luminescence Kinase test (Promega; V6712). In this homogeneous test the amount of ATP remaining after the kinase reaction is quantified by a luciferin-luciferase reaction using luminescence. The luminescence signal obtained correlates with the amount of ATP still present and thus correlates inversely with the activity of the protein kinase. The test compounds were dissolved in 100% DMSO at a concentration of 10 mM and diluted in DMSO to a concentration of 1 mM.

>  <BAO Format ID>  (151) 
BAO_0000357

>  <BAO Label>  (151) 
single protein format

>  <Assay Organism>  (151) 
Homo sapiens

>  <Target ChEMBL ID>  (151) 
CHEMBL2599

>  <Target Name>  (151) 
Tyrosine-protein kinase SYK

>  <Target Organism>  (151) 
Homo sapiens

>  <Target Type>  (151) 
SINGLE PROTEIN

>  <Document ChEMBL ID>  (151) 
CHEMBL3638486

>  <Source Description>  (151) 
BindingDB Database

>  <Document Journal>  (151) 
nan

>  <Document Year>  (151) 
2014.0

>  <Active>  (151) 
1.0

>  <bits>  (151) 
<rdkit.DataStructs.cDataStructs.ExplicitBitVect object at 0x00000193F3406F80>

>  <Group>  (151) 
G2

$$$$

     RDKit          2D

 32 34  0  0  0  0  0  0  0  0999 V2000
    7.5000   -2.5981    0.0000 C   0  0  0  0  0  0  0  0  0  0  0  0
    6.0000   -2.5981    0.0000 O   0  0  0  0  0  0  0  0  0  0  0  0
    5.2500   -1.2990    0.0000 C   0  0  0  0  0  0  0  0  0  0  0  0
    3.7500   -1.2990    0.0000 C   0  0  0  0  0  0  0  0  0  0  0  0
    3.0000    0.0000    0.0000 N   0  0  0  0  0  0  0  0  0  0  0  0
    1.5000    0.0000    0.0000 C   0  0  0  0  0  0  0  0  0  0  0  0
    0.7500   -1.2990    0.0000 N   0  0  0  0  0  0  0  0  0  0  0  0
   -0.7500   -1.2990    0.0000 C   0  0  0  0  0  0  0  0  0  0  0  0
   -1.5000   -2.5981    0.0000 C   0  0  0  0  0  0  0  0  0  0  0  0
   -3.0000   -2.5981    0.0000 C   0  0  0  0  0  0  0  0  0  0  0  0
   -3.7500   -3.8971    0.0000 C   0  0  0  0  0  0  0  0  0  0  0  0
   -3.0000   -5.1962    0.0000 C   0  0  0  0  0  0  0  0  0  0  0  0
   -3.7500   -6.4952    0.0000 N   0  0  0  0  0  0  0  0  0  0  0  0
   -5.2500   -6.4952    0.0000 C   0  0  0  0  0  0  0  0  0  0  0  0
   -6.0000   -7.7942    0.0000 C   0  0  0  0  0  0  0  0  0  0  0  0
   -7.5000   -7.7942    0.0000 C   0  0  0  0  0  0  0  0  0  0  0  0
   -5.2500   -9.0933    0.0000 O   0  0  0  0  0  0  0  0  0  0  0  0
   -1.5000   -5.1962    0.0000 C   0  0  0  0  0  0  0  0  0  0  0  0
   -0.7500   -6.4952    0.0000 S   0  0  0  0  0  0  0  0  0  0  0  0
   -0.0000   -7.7942    0.0000 C   0  0  0  0  0  0  0  0  0  0  0  0
   -2.0490   -7.2452    0.0000 O   0  0  0  0  0  0  0  0  0  0  0  0
    0.5490   -5.7452    0.0000 O   0  0  0  0  0  0  0  0  0  0  0  0
   -0.7500   -3.8971    0.0000 C   0  0  0  0  0  0  0  0  0  0  0  0
   -1.5000    0.0000    0.0000 C   0  0  0  0  0  0  0  0  0  0  0  0
   -0.7500    1.2990    0.0000 C   0  0  0  0  0  0  0  0  0  0  0  0
   -1.5000    2.5981    0.0000 N   0  0  0  0  0  0  0  0  0  0  0  0
   -0.7500    3.8971    0.0000 C   0  0  0  0  0  0  0  0  0  0  0  0
    0.7500    3.8971    0.0000 N   0  0  0  0  0  0  0  0  0  0  0  0
    1.5000    5.1962    0.0000 C   0  0  0  0  0  0  0  0  0  0  0  0
    1.5000    2.5981    0.0000 C   0  0  0  0  0  0  0  0  0  0  0  0
    3.0000    2.5981    0.0000 O   0  0  0  0  0  0  0  0  0  0  0  0
    0.7500    1.2990    0.0000 C   0  0  0  0  0  0  0  0  0  0  0  0
  1  2  1  0
  2  3  1  0
  3  4  1  0
  4  5  1  0
  5  6  1  0
  6  7  2  0
  7  8  1  0
  8  9  1  0
  9 10  2  0
 10 11  1  0
 11 12  2  0
 12 13  1  0
 13 14  1  0
 14 15  1  0
 15 16  1  6
 15 17  1  0
 12 18  1  0
 18 19  1  0
 19 20  1  0
 19 21  2  0
 19 22  2  0
 18 23  2  0
  8 24  2  0
 24 25  1  0
 25 26  1  0
 26 27  2  0
 27 28  1  0
 28 29  1  0
 28 30  1  0
 30 31  2  0
 30 32  1  0
 32  6  1  0
 23  9  1  0
 32 25  2  0
M  END
>  <Compound_ID>  (152) 
CHEMBL3701562

>  <Molecule Name>  (152) 
nan

>  <Molecular Weight>  (152) 
461.54

>  <AlogP>  (152) 
1.25

>  <Smiles>  (152) 
COCCNc1nc(-c2ccc(NC[C@@H](C)O)c(S(C)(=O)=O)c2)cc2ncn(C)c(=O)c12

>  <Standard Type>  (152) 
IC50

>  <Standard Relation>  (152) 
'='

>  <Standard Units>  (152) 
nM

>  <Standard Value>  (152) 
86.0

>  <Assay ChEMBL ID>  (152) 
CHEMBL3705362

>  <Assay Description>  (152) 
Mobility-Shift kinase assay: Compounds of the examples provided herein were assessed for their ability to inhibit Syk kinase by utilizing Caliper Life Sciences' proprietary LabChip technology. The off-chip incubation mobility-shift kinase assay uses a microfluidic chip to measure the conversion of a fluorescent peptide substrate to a phosphorylated product. The reaction mixture, from a microtiter plate well, is introduced through a capillary sipper onto the chip, where the nonphosphorylated substrate and phosphorylated product are separated by electrophoresis and detected via laser induced fluorescence. The signature of the fluorescence signal over time reveals the extent of the reaction. The phosphorylated product migrates through the chip faster than the non-phosphorylated substrate, and signals from the two forms of the peptide appear as distinct peaks.

>  <BAO Format ID>  (152) 
BAO_0000357

>  <BAO Label>  (152) 
single protein format

>  <Assay Organism>  (152) 
Homo sapiens

>  <Target ChEMBL ID>  (152) 
CHEMBL2599

>  <Target Name>  (152) 
Tyrosine-protein kinase SYK

>  <Target Organism>  (152) 
Homo sapiens

>  <Target Type>  (152) 
SINGLE PROTEIN

>  <Document ChEMBL ID>  (152) 
CHEMBL3639055

>  <Source Description>  (152) 
BindingDB Database

>  <Document Journal>  (152) 
nan

>  <Document Year>  (152) 
2014.0

>  <Active>  (152) 
1.0

>  <bits>  (152) 
<rdkit.DataStructs.cDataStructs.ExplicitBitVect object at 0x00000193F3407CA0>

>  <Group>  (152) 
G2

$$$$

     RDKit          2D

 28 30  0  0  0  0  0  0  0  0999 V2000
    6.0000   -2.5981    0.0000 C   0  0  0  0  0  0  0  0  0  0  0  0
    5.2500   -1.2990    0.0000 C   0  0  0  0  0  0  0  0  0  0  0  0
    6.0000    0.0000    0.0000 O   0  0  0  0  0  0  0  0  0  0  0  0
    3.7500   -1.2990    0.0000 N   0  0  0  0  0  0  0  0  0  0  0  0
    3.0000    0.0000    0.0000 C   0  0  0  0  0  0  0  0  0  0  0  0
    1.5000    0.0000    0.0000 C   0  0  0  0  0  0  0  0  0  0  0  0
    0.7500   -1.2990    0.0000 C   0  0  0  0  0  0  0  0  0  0  0  0
   -0.7500   -1.2990    0.0000 C   0  0  0  0  0  0  0  0  0  0  0  0
   -1.5000    0.0000    0.0000 C   0  0  0  0  0  0  0  0  0  0  0  0
   -0.7500    1.2990    0.0000 C   0  0  0  0  0  0  0  0  0  0  0  0
   -1.5000    2.5981    0.0000 C   0  0  0  0  0  0  0  0  0  0  0  0
   -0.7500    3.8971    0.0000 C   0  0  0  0  0  0  0  0  0  0  0  0
   -1.5000    5.1962    0.0000 C   0  0  0  0  0  0  0  0  0  0  0  0
   -3.0000    5.1962    0.0000 C   0  0  0  0  0  0  0  0  0  0  0  0
   -3.7500    3.8971    0.0000 C   0  0  0  0  0  0  0  0  0  0  0  0
   -5.2500    3.8971    0.0000 N   0  0  0  0  0  0  0  0  0  0  0  0
   -6.0000    5.1962    0.0000 C   0  0  0  0  0  0  0  0  0  0  0  0
   -5.2500    6.4952    0.0000 N   0  0  0  0  0  0  0  0  0  0  0  0
   -6.0000    7.7942    0.0000 C   0  0  0  0  0  0  0  0  0  0  0  0
   -7.5000    7.7942    0.0000 C   0  0  0  0  0  0  0  0  0  0  0  0
   -8.2500    6.4952    0.0000 C   0  0  0  0  0  0  0  0  0  0  0  0
   -9.7500    6.4952    0.0000 C   0  0  0  0  0  0  0  0  0  0  0  0
  -11.2500    6.4952    0.0000 F   0  0  0  0  0  0  0  0  0  0  0  0
   -9.7500    7.9952    0.0000 F   0  0  0  0  0  0  0  0  0  0  0  0
   -9.7500    4.9952    0.0000 F   0  0  0  0  0  0  0  0  0  0  0  0
   -7.5000    5.1962    0.0000 N   0  0  0  0  0  0  0  0  0  0  0  0
   -3.0000    2.5981    0.0000 C   0  0  0  0  0  0  0  0  0  0  0  0
    0.7500    1.2990    0.0000 C   0  0  0  0  0  0  0  0  0  0  0  0
  1  2  1  0
  2  3  2  0
  2  4  1  0
  4  5  1  0
  5  6  1  0
  6  7  2  0
  7  8  1  0
  8  9  2  0
  9 10  1  0
 10 11  1  0
 11 12  2  0
 12 13  1  0
 13 14  2  0
 14 15  1  0
 15 16  1  0
 16 17  1  0
 17 18  2  0
 18 19  1  0
 19 20  2  0
 20 21  1  0
 21 22  1  0
 22 23  1  0
 22 24  1  0
 22 25  1  0
 21 26  2  0
 15 27  2  0
 10 28  2  0
 28  6  1  0
 27 11  1  0
 26 17  1  0
M  END
>  <Compound_ID>  (153) 
CHEMBL3927700

>  <Molecule Name>  (153) 
nan

>  <Molecular Weight>  (153) 
386.38

>  <AlogP>  (153) 
4.54

>  <Smiles>  (153) 
CC(=O)NCc1cccc(-c2cccc(Nc3nccc(C(F)(F)F)n3)c2)c1

>  <Standard Type>  (153) 
IC50

>  <Standard Relation>  (153) 
'='

>  <Standard Units>  (153) 
nM

>  <Standard Value>  (153) 
97.1

>  <Assay ChEMBL ID>  (153) 
CHEMBL3888530

>  <Assay Description>  (153) 
Homogeneous Time-Resolved Fluorescence (HTRF) Assay: A recombinant GST-hSYK fusion protein was used to measure potency of compounds to inhibit human Syk activity. The recombinant human GST-SYK (Carna Biosciences #08-176) (5 μM final concentration) was incubated with various concentrations of the inhibitor diluted in DMSO (0.1% final concentration) for 10 minutes at room temperature in 15 mM Tris-HCl (pH 7.5), 0.01% tween 20, 2 mM DTT in 384 well plate format. To initiate the reaction the biotinylated substrate peptide (250 nM final concentration) that contains the phosphorylation site for Syk was added with magnesium (5 mM final concentration) and ATP (25 μM final concentration). Final volume of the reaction was 10 μL. Phosphorylation of the peptide was allowed to proceed for 45' at room temperature. To quench the reaction and detect the phosphorylated product, 2 nM of a Europium-anti-phosphotyrosine antibody (Perkin Elmer #AD0161) and 70 nM SA-APC (Perkin-Elmer #CR130-100) were added together in 15 mM Tris pH 7.5, 40 mM EDTA, 0.01% tween 20. Final volume of the quenching solution was 10 μL. The resulting HTRF signal was measured after 30 minutes on an EnVision (Perkin-Elmer) reader using a time-resolved fluorescence protocol.

>  <BAO Format ID>  (153) 
BAO_0000357

>  <BAO Label>  (153) 
single protein format

>  <Assay Organism>  (153) 
Homo sapiens

>  <Target ChEMBL ID>  (153) 
CHEMBL2599

>  <Target Name>  (153) 
Tyrosine-protein kinase SYK

>  <Target Organism>  (153) 
Homo sapiens

>  <Target Type>  (153) 
SINGLE PROTEIN

>  <Document ChEMBL ID>  (153) 
CHEMBL3886750

>  <Source Description>  (153) 
BindingDB Database

>  <Document Journal>  (153) 
nan

>  <Document Year>  (153) 
2016.0

>  <Active>  (153) 
1.0

>  <bits>  (153) 
<rdkit.DataStructs.cDataStructs.ExplicitBitVect object at 0x00000193F34074C0>

>  <Group>  (153) 
G2

$$$$

     RDKit          2D

 26 29  0  0  0  0  0  0  0  0999 V2000
    1.5000    0.0000    0.0000 C   0  0  0  0  0  0  0  0  0  0  0  0
    0.7500   -1.2990    0.0000 C   0  0  0  0  0  0  0  0  0  0  0  0
   -0.7500   -1.2990    0.0000 C   0  0  0  0  0  0  0  0  0  0  0  0
   -1.5000    0.0000    0.0000 C   0  0  0  0  0  0  0  0  0  0  0  0
   -3.0000    0.0000    0.0000 C   0  0  0  0  0  0  0  0  0  0  0  0
   -3.7500    1.2990    0.0000 C   0  0  0  0  0  0  0  0  0  0  0  0
   -5.2500    1.2990    0.0000 C   0  0  0  0  0  0  0  0  0  0  0  0
   -6.0000    0.0000    0.0000 C   0  0  0  0  0  0  0  0  0  0  0  0
   -5.2500   -1.2990    0.0000 C   0  0  0  0  0  0  0  0  0  0  0  0
   -6.0000   -2.5981    0.0000 N   0  0  0  0  0  0  0  0  0  0  0  0
   -7.5000   -2.5981    0.0000 C   0  0  0  0  0  0  0  0  0  0  0  0
   -8.2500   -1.2990    0.0000 N   0  0  0  0  0  0  0  0  0  0  0  0
   -9.7500   -1.2990    0.0000 C   0  0  0  0  0  0  0  0  0  0  0  0
  -10.5000   -2.5981    0.0000 C   0  0  0  0  0  0  0  0  0  0  0  0
   -9.7500   -3.8971    0.0000 C   0  0  0  0  0  0  0  0  0  0  0  0
  -10.5000   -5.1962    0.0000 O   0  0  0  0  0  0  0  0  0  0  0  0
  -12.0000   -5.1962    0.0000 C   0  0  0  0  0  0  0  0  0  0  0  0
  -12.7500   -3.8971    0.0000 C   0  0  0  0  0  0  0  0  0  0  0  0
  -14.2500   -3.8971    0.0000 C   0  0  0  0  0  0  0  0  0  0  0  0
  -15.0000   -5.1962    0.0000 N   0  0  0  0  0  0  0  0  0  0  0  0
  -14.2500   -6.4952    0.0000 C   0  0  0  0  0  0  0  0  0  0  0  0
  -12.7500   -6.4952    0.0000 C   0  0  0  0  0  0  0  0  0  0  0  0
   -8.2500   -3.8971    0.0000 N   0  0  0  0  0  0  0  0  0  0  0  0
   -3.7500   -1.2990    0.0000 C   0  0  0  0  0  0  0  0  0  0  0  0
   -0.7500    1.2990    0.0000 C   0  0  0  0  0  0  0  0  0  0  0  0
    0.7500    1.2990    0.0000 C   0  0  0  0  0  0  0  0  0  0  0  0
  1  2  2  0
  2  3  1  0
  3  4  2  0
  4  5  1  0
  5  6  2  0
  6  7  1  0
  7  8  2  0
  8  9  1  0
  9 10  1  0
 10 11  1  0
 11 12  2  0
 12 13  1  0
 13 14  2  0
 14 15  1  0
 15 16  1  0
 16 17  1  0
 17 18  1  0
 18 19  1  0
 19 20  1  0
 20 21  1  0
 21 22  1  0
 15 23  2  0
  9 24  2  0
  4 25  1  0
 25 26  2  0
 26  1  1  0
 24  5  1  0
 23 11  1  0
 22 17  1  0
M  END
>  <Compound_ID>  (154) 
CHEMBL3972425

>  <Molecule Name>  (154) 
nan

>  <Molecular Weight>  (154) 
346.43

>  <AlogP>  (154) 
4.02

>  <Smiles>  (154) 
c1ccc(-c2cccc(Nc3nccc(OC4CCNCC4)n3)c2)cc1

>  <Standard Type>  (154) 
IC50

>  <Standard Relation>  (154) 
'='

>  <Standard Units>  (154) 
nM

>  <Standard Value>  (154) 
18.9

>  <Assay ChEMBL ID>  (154) 
CHEMBL3888530

>  <Assay Description>  (154) 
Homogeneous Time-Resolved Fluorescence (HTRF) Assay: A recombinant GST-hSYK fusion protein was used to measure potency of compounds to inhibit human Syk activity. The recombinant human GST-SYK (Carna Biosciences #08-176) (5 μM final concentration) was incubated with various concentrations of the inhibitor diluted in DMSO (0.1% final concentration) for 10 minutes at room temperature in 15 mM Tris-HCl (pH 7.5), 0.01% tween 20, 2 mM DTT in 384 well plate format. To initiate the reaction the biotinylated substrate peptide (250 nM final concentration) that contains the phosphorylation site for Syk was added with magnesium (5 mM final concentration) and ATP (25 μM final concentration). Final volume of the reaction was 10 μL. Phosphorylation of the peptide was allowed to proceed for 45' at room temperature. To quench the reaction and detect the phosphorylated product, 2 nM of a Europium-anti-phosphotyrosine antibody (Perkin Elmer #AD0161) and 70 nM SA-APC (Perkin-Elmer #CR130-100) were added together in 15 mM Tris pH 7.5, 40 mM EDTA, 0.01% tween 20. Final volume of the quenching solution was 10 μL. The resulting HTRF signal was measured after 30 minutes on an EnVision (Perkin-Elmer) reader using a time-resolved fluorescence protocol.

>  <BAO Format ID>  (154) 
BAO_0000357

>  <BAO Label>  (154) 
single protein format

>  <Assay Organism>  (154) 
Homo sapiens

>  <Target ChEMBL ID>  (154) 
CHEMBL2599

>  <Target Name>  (154) 
Tyrosine-protein kinase SYK

>  <Target Organism>  (154) 
Homo sapiens

>  <Target Type>  (154) 
SINGLE PROTEIN

>  <Document ChEMBL ID>  (154) 
CHEMBL3886750

>  <Source Description>  (154) 
BindingDB Database

>  <Document Journal>  (154) 
nan

>  <Document Year>  (154) 
2016.0

>  <Active>  (154) 
1.0

>  <bits>  (154) 
<rdkit.DataStructs.cDataStructs.ExplicitBitVect object at 0x00000193F3406A40>

>  <Group>  (154) 
G2

$$$$

     RDKit          2D

 32 36  0  0  0  0  0  0  0  0999 V2000
   -5.9418    1.2829    0.0000 C   0  0  0  0  0  0  0  0  0  0  0  0
   -6.2537   -0.1843    0.0000 N   0  0  0  0  0  0  0  0  0  0  0  0
   -7.6240   -0.7944    0.0000 N   0  0  0  0  0  0  0  0  0  0  0  0
   -7.4672   -2.2862    0.0000 C   0  0  0  0  0  0  0  0  0  0  0  0
   -6.0000   -2.5981    0.0000 C   0  0  0  0  0  0  0  0  0  0  0  0
   -5.2500   -3.8971    0.0000 C   0  0  0  0  0  0  0  0  0  0  0  0
   -3.7500   -3.8971    0.0000 C   0  0  0  0  0  0  0  0  0  0  0  0
   -3.0000   -5.1962    0.0000 N   0  0  0  0  0  0  0  0  0  0  0  0
   -1.5000   -5.1962    0.0000 C   0  0  0  0  0  0  0  0  0  0  0  0
   -0.7500   -6.4952    0.0000 N   0  0  0  0  0  0  0  0  0  0  0  0
    0.7500   -6.4952    0.0000 C   0  0  0  0  0  0  0  0  0  0  0  0
    1.5000   -5.1962    0.0000 C   0  0  0  0  0  0  0  0  0  0  0  0
    3.0000   -5.1962    0.0000 F   0  0  0  0  0  0  0  0  0  0  0  0
    0.7500   -3.8971    0.0000 C   0  0  0  0  0  0  0  0  0  0  0  0
    1.5000   -2.5981    0.0000 N   0  0  0  0  0  0  0  0  0  0  0  0
    0.7500   -1.2990    0.0000 C   0  0  0  0  0  0  0  0  0  0  0  0
   -0.7500   -1.2990    0.0000 C   0  0  0  0  0  0  0  0  0  0  0  0
   -1.5000   -0.0000    0.0000 C   0  0  0  0  0  0  0  0  0  0  0  0
   -0.7500    1.2990    0.0000 C   0  0  0  0  0  0  0  0  0  0  0  0
    0.7500    1.2990    0.0000 C   0  0  0  0  0  0  0  0  0  0  0  0
    1.5000   -0.0000    0.0000 C   0  0  0  0  0  0  0  0  0  0  0  0
    1.5000    2.5981    0.0000 N   0  0  0  0  0  0  0  0  0  0  0  0
    0.7500    3.8971    0.0000 C   0  0  0  0  0  0  0  0  0  0  0  0
    1.5000    5.1962    0.0000 O   0  0  0  0  0  0  0  0  0  0  0  0
   -0.7500    3.8971    0.0000 C   0  0  0  0  0  0  0  0  0  0  0  0
   -2.1595    4.4101    0.0000 C   0  0  0  0  0  0  0  0  0  0  0  0
   -0.4895    5.3743    0.0000 C   0  0  0  0  0  0  0  0  0  0  0  0
   -1.5000    2.5981    0.0000 O   0  0  0  0  0  0  0  0  0  0  0  0
   -0.7500   -3.8971    0.0000 N   0  0  0  0  0  0  0  0  0  0  0  0
   -3.0000   -2.5981    0.0000 C   0  0  0  0  0  0  0  0  0  0  0  0
   -3.7500   -1.2990    0.0000 C   0  0  0  0  0  0  0  0  0  0  0  0
   -5.2500   -1.2990    0.0000 C   0  0  0  0  0  0  0  0  0  0  0  0
  1  2  1  0
  2  3  1  0
  3  4  2  0
  4  5  1  0
  5  6  2  0
  6  7  1  0
  7  8  1  0
  8  9  1  0
  9 10  2  0
 10 11  1  0
 11 12  2  0
 12 13  1  0
 12 14  1  0
 14 15  1  0
 15 16  1  0
 16 17  2  0
 17 18  1  0
 18 19  2  0
 19 20  1  0
 20 21  2  0
 20 22  1  0
 22 23  1  0
 23 24  2  0
 23 25  1  0
 25 26  1  0
 25 27  1  0
 25 28  1  0
 14 29  2  0
  7 30  2  0
 30 31  1  0
 31 32  2  0
 32  2  1  0
 32  5  1  0
 29  9  1  0
 21 16  1  0
 28 19  1  0
M  END
>  <Compound_ID>  (155) 
CHEMBL3893782

>  <Molecule Name>  (155) 
nan

>  <Molecular Weight>  (155) 
433.45

>  <AlogP>  (155) 
4.10

>  <Smiles>  (155) 
Cn1ncc2cc(Nc3ncc(F)c(Nc4ccc5c(c4)NC(=O)C(C)(C)O5)n3)ccc21

>  <Standard Type>  (155) 
IC50

>  <Standard Relation>  (155) 
'='

>  <Standard Units>  (155) 
nM

>  <Standard Value>  (155) 
28.0

>  <Assay ChEMBL ID>  (155) 
CHEMBL3889292

>  <Assay Description>  (155) 
Biochemical Assay: Several 2,4-pyrimidinediamine compounds were tested for the ability to inhibit Syk kinase catalyzed phosphorylation of a peptide substrate in a biochemical fluorescenced polarization assay with isolated Syk kinase. In this experiment, Compounds were diluted to 1% DMSO in kinase buffer (20 mM HEPES, pH 7.4, 5 mM MgCl2, 2 mM MnCl2, 1 mM DTT, 0.1 mg/mL acetylated Bovine Gamma Globulin). Compound in 1% DMSO (0.2% DMSO final) was mixed with ATP/substrate solution at room temperature. Syk kinase (Upstate, Lake Placid N.Y.) was added to a final reaction volume of 20 uL, and the reaction was incubated for 30 minutes at room temperature. Final enzyme reaction conditions were 20 mM HEPES, pH 7.4, 5 mM MgCl2, 2 mM MnCl2, 1 mM DTT, 0.1 mg/mL acetylated Bovine Gamma Globulin, 0.125 ng Syk, 4 uM ATP, 2.5 uM peptide substrate (biotin-EQEDEPEGDYEEVLE-CONH2, SynPep Corporation). EDTA (10 mM final)/anti-phosphotyrosine antibody (1x final)/fluorescent phosphopeptide tracer (0.5x final) was added in FP Dilution Buffer to stop the reaction for a total volume of 40 uL according to manufacturer's instructions (PanVera Corporation) The plate was incubated for 30 minutes in the dark at room temperature. Plates were read on a Polarion fluorescence polarization plate reader (Tecan). Data were converted to amount of phosphopeptide present using a calibration curve generated by competition with the phosphopeptide competitor provided in the Tyrosine Kinase Assay Kit, Green (PanVera Corporation).

>  <BAO Format ID>  (155) 
BAO_0000357

>  <BAO Label>  (155) 
single protein format

>  <Assay Organism>  (155) 
Homo sapiens

>  <Target ChEMBL ID>  (155) 
CHEMBL2599

>  <Target Name>  (155) 
Tyrosine-protein kinase SYK

>  <Target Organism>  (155) 
Homo sapiens

>  <Target Type>  (155) 
SINGLE PROTEIN

>  <Document ChEMBL ID>  (155) 
CHEMBL3887020

>  <Source Description>  (155) 
BindingDB Database

>  <Document Journal>  (155) 
nan

>  <Document Year>  (155) 
2016.0

>  <Active>  (155) 
1.0

>  <bits>  (155) 
<rdkit.DataStructs.cDataStructs.ExplicitBitVect object at 0x00000193F3406B20>

>  <Group>  (155) 
G2

$$$$

     RDKit          2D

 33 37  0  0  0  0  0  0  0  0999 V2000
   -7.5000   -7.7942    0.0000 C   0  0  0  0  0  0  0  0  0  0  0  0
   -6.0000   -7.7942    0.0000 O   0  0  0  0  0  0  0  0  0  0  0  0
   -5.2500   -6.4952    0.0000 C   0  0  0  0  0  0  0  0  0  0  0  0
   -6.0000   -5.1962    0.0000 C   0  0  0  0  0  0  0  0  0  0  0  0
   -5.2500   -3.8971    0.0000 C   0  0  0  0  0  0  0  0  0  0  0  0
   -3.7500   -3.8971    0.0000 N   0  0  0  0  0  0  0  0  0  0  0  0
   -3.0000   -5.1962    0.0000 C   0  0  0  0  0  0  0  0  0  0  0  0
   -1.5000   -5.1962    0.0000 C   0  0  0  0  0  0  0  0  0  0  0  0
   -0.7500   -6.4952    0.0000 C   0  0  0  0  0  0  0  0  0  0  0  0
    0.7500   -6.4952    0.0000 C   0  0  0  0  0  0  0  0  0  0  0  0
    1.5000   -5.1962    0.0000 N   0  0  0  0  0  0  0  0  0  0  0  0
    0.7500   -3.8971    0.0000 C   0  0  0  0  0  0  0  0  0  0  0  0
    1.5000   -2.5981    0.0000 N   0  0  0  0  0  0  0  0  0  0  0  0
    0.7500   -1.2990    0.0000 C   0  0  0  0  0  0  0  0  0  0  0  0
    1.5000    0.0000    0.0000 C   0  0  0  0  0  0  0  0  0  0  0  0
    0.7500    1.2990    0.0000 C   0  0  0  0  0  0  0  0  0  0  0  0
   -0.7500    1.2990    0.0000 C   0  0  0  0  0  0  0  0  0  0  0  0
   -1.7537    2.4138    0.0000 S   0  0  0  0  0  0  0  0  0  0  0  0
   -3.1240    1.8037    0.0000 C   0  0  0  0  0  0  0  0  0  0  0  0
   -4.4231    2.5537    0.0000 C   0  0  0  0  0  0  0  0  0  0  0  0
   -5.7221    1.8037    0.0000 O   0  0  0  0  0  0  0  0  0  0  0  0
   -4.4231    4.0537    0.0000 N   0  0  0  0  0  0  0  0  0  0  0  0
   -3.1240    4.8037    0.0000 C   0  0  0  0  0  0  0  0  0  0  0  0
   -3.1240    6.3037    0.0000 C   0  0  0  0  0  0  0  0  0  0  0  0
   -4.4231    7.0537    0.0000 N   0  0  0  0  0  0  0  0  0  0  0  0
   -4.4231    8.5537    0.0000 C   0  0  0  0  0  0  0  0  0  0  0  0
   -5.7221    6.3037    0.0000 C   0  0  0  0  0  0  0  0  0  0  0  0
   -5.7221    4.8037    0.0000 C   0  0  0  0  0  0  0  0  0  0  0  0
   -2.9672    0.3119    0.0000 C   0  0  0  0  0  0  0  0  0  0  0  0
   -1.5000    0.0000    0.0000 C   0  0  0  0  0  0  0  0  0  0  0  0
   -0.7500   -1.2990    0.0000 C   0  0  0  0  0  0  0  0  0  0  0  0
   -0.7500   -3.8971    0.0000 N   0  0  0  0  0  0  0  0  0  0  0  0
   -3.7500   -6.4952    0.0000 C   0  0  0  0  0  0  0  0  0  0  0  0
  1  2  1  0
  2  3  1  0
  3  4  2  0
  4  5  1  0
  5  6  2  0
  6  7  1  0
  7  8  1  0
  8  9  2  0
  9 10  1  0
 10 11  2  0
 11 12  1  0
 12 13  1  0
 13 14  1  0
 14 15  2  0
 15 16  1  0
 16 17  2  0
 17 18  1  0
 18 19  1  0
 19 20  1  0
 20 21  2  0
 20 22  1  0
 22 23  1  0
 23 24  1  0
 24 25  1  0
 25 26  1  0
 25 27  1  0
 27 28  1  0
 19 29  2  0
 29 30  1  0
 30 31  2  0
 12 32  2  0
  7 33  2  0
 33  3  1  0
 32  8  1  0
 31 14  1  0
 30 17  1  0
 28 22  1  0
M  END
>  <Compound_ID>  (156) 
CHEMBL3641561

>  <Molecule Name>  (156) 
nan

>  <Molecular Weight>  (156) 
460.56

>  <AlogP>  (156) 
3.89

>  <Smiles>  (156) 
COc1ccnc(-c2ccnc(Nc3ccc4sc(C(=O)N5CCN(C)CC5)cc4c3)n2)c1

>  <Standard Type>  (156) 
IC50

>  <Standard Relation>  (156) 
'='

>  <Standard Units>  (156) 
nM

>  <Standard Value>  (156) 
21.3

>  <Assay ChEMBL ID>  (156) 
CHEMBL3705803

>  <Assay Description>  (156) 
Kinase Glo Luminescence Kinase Assay: Recombinant human Syk (amino acids 342-635) was expressed as a fusion protein with an N-terminal GST tag, affinity-purified and deep-frozen at a concentration of approx. 50-100 uM in test buffer (25 mM HEPES pH7.5; 25 mM MgCl2; 5 mM MnCl2; 50 mM KCl; 0.2% BSA; 0.01% CHAPS; 100 uM Na3VO4; 0.5 mM DTT) and 10% glycerol at -80 C until use. The catalytic activity of the GST-Syk kinase fusion protein was determined using the Kinase Glo Luminescence Kinase test (Promega; V6712). In this homogeneous test the amount of ATP remaining after the kinase reaction is quantified by a luciferin-luciferase reaction using luminescence. The luminescence signal obtained correlates with the amount of ATP still present and thus correlates inversely with the activity of the protein kinase. The test compounds were dissolved in 100% DMSO at a concentration of 10 mM and diluted in DMSO to a concentration of 1 mM.

>  <BAO Format ID>  (156) 
BAO_0000357

>  <BAO Label>  (156) 
single protein format

>  <Assay Organism>  (156) 
Homo sapiens

>  <Target ChEMBL ID>  (156) 
CHEMBL2599

>  <Target Name>  (156) 
Tyrosine-protein kinase SYK

>  <Target Organism>  (156) 
Homo sapiens

>  <Target Type>  (156) 
SINGLE PROTEIN

>  <Document ChEMBL ID>  (156) 
CHEMBL3638486

>  <Source Description>  (156) 
BindingDB Database

>  <Document Journal>  (156) 
nan

>  <Document Year>  (156) 
2014.0

>  <Active>  (156) 
1.0

>  <bits>  (156) 
<rdkit.DataStructs.cDataStructs.ExplicitBitVect object at 0x00000193F3405C40>

>  <Group>  (156) 
G2

$$$$

     RDKit          2D

 31 33  0  0  0  0  0  0  0  0999 V2000
    3.0000    0.0000    0.0000 C   0  0  0  0  0  0  0  0  0  0  0  0
    1.5000    0.0000    0.0000 C   0  0  0  0  0  0  0  0  0  0  0  0
    0.7500   -1.2990    0.0000 C   0  0  0  0  0  0  0  0  0  0  0  0
   -0.7500   -1.2990    0.0000 C   0  0  0  0  0  0  0  0  0  0  0  0
   -1.5000   -2.5981    0.0000 N   0  0  0  0  0  0  0  0  0  0  0  0
   -3.0000   -2.5981    0.0000 C   0  0  0  0  0  0  0  0  0  0  0  0
   -3.7500   -1.2990    0.0000 N   0  0  0  0  0  0  0  0  0  0  0  0
   -5.2500   -1.2990    0.0000 C   0  0  0  0  0  0  0  0  0  0  0  0
   -6.0000   -2.5981    0.0000 C   0  0  0  0  0  0  0  0  0  0  0  0
   -5.2500   -3.8971    0.0000 C   0  0  0  0  0  0  0  0  0  0  0  0
   -6.0000   -5.1962    0.0000 C   0  0  0  0  0  0  0  0  0  0  0  0
   -6.7500   -6.4952    0.0000 F   0  0  0  0  0  0  0  0  0  0  0  0
   -7.2990   -4.4462    0.0000 F   0  0  0  0  0  0  0  0  0  0  0  0
   -4.7010   -5.9462    0.0000 F   0  0  0  0  0  0  0  0  0  0  0  0
   -3.7500   -3.8971    0.0000 N   0  0  0  0  0  0  0  0  0  0  0  0
   -1.5000    0.0000    0.0000 C   0  0  0  0  0  0  0  0  0  0  0  0
   -0.7500    1.2990    0.0000 C   0  0  0  0  0  0  0  0  0  0  0  0
   -1.5000    2.5981    0.0000 C   0  0  0  0  0  0  0  0  0  0  0  0
   -2.9918    2.7549    0.0000 C   0  0  0  0  0  0  0  0  0  0  0  0
   -3.3037    4.2221    0.0000 N   0  0  0  0  0  0  0  0  0  0  0  0
   -2.0046    4.9721    0.0000 C   0  0  0  0  0  0  0  0  0  0  0  0
   -1.8478    6.4639    0.0000 C   0  0  0  0  0  0  0  0  0  0  0  0
   -0.4775    7.0740    0.0000 N   0  0  0  0  0  0  0  0  0  0  0  0
   -0.3207    8.5658    0.0000 C   0  0  0  0  0  0  0  0  0  0  0  0
    1.0496    9.1759    0.0000 C   0  0  0  0  0  0  0  0  0  0  0  0
    1.2064   10.6676    0.0000 S   0  0  0  0  0  0  0  0  0  0  0  0
    1.3632   12.1594    0.0000 N   0  0  0  0  0  0  0  0  0  0  0  0
    2.6982   10.5109    0.0000 O   0  0  0  0  0  0  0  0  0  0  0  0
   -0.2854   10.8244    0.0000 O   0  0  0  0  0  0  0  0  0  0  0  0
   -0.8899    3.9684    0.0000 S   0  0  0  0  0  0  0  0  0  0  0  0
    0.7500    1.2990    0.0000 C   0  0  0  0  0  0  0  0  0  0  0  0
  1  2  1  0
  2  3  2  0
  3  4  1  0
  4  5  1  0
  5  6  1  0
  6  7  2  0
  7  8  1  0
  8  9  2  0
  9 10  1  0
 10 11  1  0
 11 12  1  0
 11 13  1  0
 11 14  1  0
 10 15  2  0
  4 16  2  0
 16 17  1  0
 17 18  1  0
 18 19  2  0
 19 20  1  0
 20 21  2  0
 21 22  1  0
 22 23  1  0
 23 24  1  0
 24 25  1  0
 25 26  1  0
 26 27  1  0
 26 28  2  0
 26 29  2  0
 21 30  1  0
 17 31  2  0
 31  2  1  0
 15  6  1  0
 30 18  1  0
M  END
>  <Compound_ID>  (157) 
CHEMBL3685813

>  <Molecule Name>  (157) 
nan

>  <Molecular Weight>  (157) 
472.52

>  <AlogP>  (157) 
3.05

>  <Smiles>  (157) 
Cc1cc(Nc2nccc(C(F)(F)F)n2)cc(-c2cnc(CNCCS(N)(=O)=O)s2)c1

>  <Standard Type>  (157) 
IC50

>  <Standard Relation>  (157) 
'='

>  <Standard Units>  (157) 
nM

>  <Standard Value>  (157) 
5.0

>  <Assay ChEMBL ID>  (157) 
CHEMBL3705225

>  <Assay Description>  (157) 
Homogeneous Time-Resolved Fluorescence (HTRF) Assay : A recombinant GST-hSYK fusion protein was used to measure potency of compounds to inhibit human SYK activity. The recombinant human GST-SYK (Carna Biosciences #08-176) (5 pM final concentration) was incubated with various concentrations of the inhibitor diluted in DMSO (0.1% final concentration) for 10 minutes at room temperature in 15 mM Tris-HCl (pH 7.5), 0.01% tween 20, 2 mM DTT in 384 well plate format. To initiate the reaction the biotinylated substrate peptide (250 nM final concentration) that contains the phosphorylation site for SYK was added with magnesium (5 mM final concentration) and ATP (25 μM final concentration). Final volume of the reaction was 10 μL. Phosphorylation of the peptide was allowed to proceed for 45′ at room temperature.

>  <BAO Format ID>  (157) 
BAO_0000357

>  <BAO Label>  (157) 
single protein format

>  <Assay Organism>  (157) 
Homo sapiens

>  <Target ChEMBL ID>  (157) 
CHEMBL2599

>  <Target Name>  (157) 
Tyrosine-protein kinase SYK

>  <Target Organism>  (157) 
Homo sapiens

>  <Target Type>  (157) 
SINGLE PROTEIN

>  <Document ChEMBL ID>  (157) 
CHEMBL3639355

>  <Source Description>  (157) 
BindingDB Database

>  <Document Journal>  (157) 
nan

>  <Document Year>  (157) 
2014.0

>  <Active>  (157) 
1.0

>  <bits>  (157) 
<rdkit.DataStructs.cDataStructs.ExplicitBitVect object at 0x00000193F34049E0>

>  <Group>  (157) 
G2

$$$$

     RDKit          2D

 34 37  0  0  0  0  0  0  0  0999 V2000
   -0.5773   -4.2803    0.0000 O   0  0  0  0  0  0  0  0  0  0  0  0
    0.8899   -3.9684    0.0000 C   0  0  0  0  0  0  0  0  0  0  0  0
    2.0046   -4.9721    0.0000 O   0  0  0  0  0  0  0  0  0  0  0  0
    3.3037   -4.2221    0.0000 C   0  0  0  0  0  0  0  0  0  0  0  0
    2.9918   -2.7549    0.0000 C   0  0  0  0  0  0  0  0  0  0  0  0
    1.5000   -2.5981    0.0000 N   0  0  0  0  0  0  0  0  0  0  0  0
    0.7500   -1.2990    0.0000 C   0  0  0  0  0  0  0  0  0  0  0  0
    1.5000    0.0000    0.0000 C   0  0  0  0  0  0  0  0  0  0  0  0
    0.7500    1.2990    0.0000 C   0  0  0  0  0  0  0  0  0  0  0  0
    1.5000    2.5981    0.0000 N   0  0  0  0  0  0  0  0  0  0  0  0
    3.0000    2.5981    0.0000 C   0  0  0  0  0  0  0  0  0  0  0  0
    3.7500    1.2990    0.0000 N   0  0  0  0  0  0  0  0  0  0  0  0
    5.2500    1.2990    0.0000 C   0  0  0  0  0  0  0  0  0  0  0  0
    6.0000    2.5981    0.0000 C   0  0  0  0  0  0  0  0  0  0  0  0
    5.2500    3.8971    0.0000 C   0  0  0  0  0  0  0  0  0  0  0  0
    6.0000    5.1962    0.0000 C   0  0  0  0  0  0  0  0  0  0  0  0
    6.7500    6.4952    0.0000 F   0  0  0  0  0  0  0  0  0  0  0  0
    7.2990    4.4462    0.0000 F   0  0  0  0  0  0  0  0  0  0  0  0
    4.7010    5.9462    0.0000 F   0  0  0  0  0  0  0  0  0  0  0  0
    3.7500    3.8971    0.0000 N   0  0  0  0  0  0  0  0  0  0  0  0
   -0.7500    1.2990    0.0000 C   0  0  0  0  0  0  0  0  0  0  0  0
   -1.5000    0.0000    0.0000 C   0  0  0  0  0  0  0  0  0  0  0  0
   -3.0000    0.0000    0.0000 C   0  0  0  0  0  0  0  0  0  0  0  0
   -3.7500    1.2990    0.0000 C   0  0  0  0  0  0  0  0  0  0  0  0
   -5.2500    1.2990    0.0000 C   0  0  0  0  0  0  0  0  0  0  0  0
   -6.0000    0.0000    0.0000 C   0  0  0  0  0  0  0  0  0  0  0  0
   -7.5000    0.0000    0.0000 C   0  0  0  0  0  0  0  0  0  0  0  0
   -8.2500   -1.2990    0.0000 O   0  0  0  0  0  0  0  0  0  0  0  0
   -8.2500    1.2990    0.0000 C   0  0  0  0  0  0  0  0  0  0  0  0
   -9.7500    1.2990    0.0000 F   0  0  0  0  0  0  0  0  0  0  0  0
   -7.5000    2.5981    0.0000 F   0  0  0  0  0  0  0  0  0  0  0  0
   -5.2500   -1.2990    0.0000 C   0  0  0  0  0  0  0  0  0  0  0  0
   -3.7500   -1.2990    0.0000 C   0  0  0  0  0  0  0  0  0  0  0  0
   -0.7500   -1.2990    0.0000 C   0  0  0  0  0  0  0  0  0  0  0  0
  1  2  2  0
  2  3  1  0
  3  4  1  0
  4  5  1  0
  5  6  1  0
  6  7  1  0
  7  8  2  0
  8  9  1  0
  9 10  1  0
 10 11  1  0
 11 12  2  0
 12 13  1  0
 13 14  2  0
 14 15  1  0
 15 16  1  0
 16 17  1  0
 16 18  1  0
 16 19  1  0
 15 20  2  0
  9 21  2  0
 21 22  1  0
 22 23  1  0
 23 24  2  0
 24 25  1  0
 25 26  2  0
 26 27  1  0
 27 28  1  1
 27 29  1  0
 29 30  1  0
 29 31  1  0
 26 32  1  0
 32 33  2  0
 22 34  2  0
  6  2  1  0
 34  7  1  0
 20 11  1  0
 33 23  1  0
M  END
>  <Compound_ID>  (158) 
CHEMBL3948425

>  <Molecule Name>  (158) 
nan

>  <Molecular Weight>  (158) 
480.39

>  <AlogP>  (158) 
5.16

>  <Smiles>  (158) 
O=C1OCCN1c1cc(Nc2nccc(C(F)(F)F)n2)cc(-c2ccc([C@@H](O)C(F)F)cc2)c1

>  <Standard Type>  (158) 
IC50

>  <Standard Relation>  (158) 
'='

>  <Standard Units>  (158) 
nM

>  <Standard Value>  (158) 
43.7

>  <Assay ChEMBL ID>  (158) 
CHEMBL3888530

>  <Assay Description>  (158) 
Homogeneous Time-Resolved Fluorescence (HTRF) Assay: A recombinant GST-hSYK fusion protein was used to measure potency of compounds to inhibit human Syk activity. The recombinant human GST-SYK (Carna Biosciences #08-176) (5 μM final concentration) was incubated with various concentrations of the inhibitor diluted in DMSO (0.1% final concentration) for 10 minutes at room temperature in 15 mM Tris-HCl (pH 7.5), 0.01% tween 20, 2 mM DTT in 384 well plate format. To initiate the reaction the biotinylated substrate peptide (250 nM final concentration) that contains the phosphorylation site for Syk was added with magnesium (5 mM final concentration) and ATP (25 μM final concentration). Final volume of the reaction was 10 μL. Phosphorylation of the peptide was allowed to proceed for 45' at room temperature. To quench the reaction and detect the phosphorylated product, 2 nM of a Europium-anti-phosphotyrosine antibody (Perkin Elmer #AD0161) and 70 nM SA-APC (Perkin-Elmer #CR130-100) were added together in 15 mM Tris pH 7.5, 40 mM EDTA, 0.01% tween 20. Final volume of the quenching solution was 10 μL. The resulting HTRF signal was measured after 30 minutes on an EnVision (Perkin-Elmer) reader using a time-resolved fluorescence protocol.

>  <BAO Format ID>  (158) 
BAO_0000357

>  <BAO Label>  (158) 
single protein format

>  <Assay Organism>  (158) 
Homo sapiens

>  <Target ChEMBL ID>  (158) 
CHEMBL2599

>  <Target Name>  (158) 
Tyrosine-protein kinase SYK

>  <Target Organism>  (158) 
Homo sapiens

>  <Target Type>  (158) 
SINGLE PROTEIN

>  <Document ChEMBL ID>  (158) 
CHEMBL3886750

>  <Source Description>  (158) 
BindingDB Database

>  <Document Journal>  (158) 
nan

>  <Document Year>  (158) 
2016.0

>  <Active>  (158) 
1.0

>  <bits>  (158) 
<rdkit.DataStructs.cDataStructs.ExplicitBitVect object at 0x00000193F34042E0>

>  <Group>  (158) 
G2

$$$$

     RDKit          2D

 36 39  0  0  0  0  0  0  0  0999 V2000
    3.0000    0.0000    0.0000 C   0  0  0  0  0  0  0  0  0  0  0  0
    1.5000    0.0000    0.0000 C   0  0  0  0  0  0  0  0  0  0  0  0
    0.7500   -1.2990    0.0000 C   0  0  0  0  0  0  0  0  0  0  0  0
   -0.7500   -1.2990    0.0000 C   0  0  0  0  0  0  0  0  0  0  0  0
   -1.5000   -2.5981    0.0000 N   0  0  0  0  0  0  0  0  0  0  0  0
   -3.0000   -2.5981    0.0000 C   0  0  0  0  0  0  0  0  0  0  0  0
   -3.7500   -1.2990    0.0000 N   0  0  0  0  0  0  0  0  0  0  0  0
   -5.2500   -1.2990    0.0000 C   0  0  0  0  0  0  0  0  0  0  0  0
   -6.0000   -2.5981    0.0000 C   0  0  0  0  0  0  0  0  0  0  0  0
   -5.2500   -3.8971    0.0000 C   0  0  0  0  0  0  0  0  0  0  0  0
   -6.0000   -5.1962    0.0000 C   0  0  0  0  0  0  0  0  0  0  0  0
   -6.7500   -6.4952    0.0000 F   0  0  0  0  0  0  0  0  0  0  0  0
   -7.2990   -4.4462    0.0000 F   0  0  0  0  0  0  0  0  0  0  0  0
   -4.7010   -5.9462    0.0000 F   0  0  0  0  0  0  0  0  0  0  0  0
   -3.7500   -3.8971    0.0000 N   0  0  0  0  0  0  0  0  0  0  0  0
   -1.5000    0.0000    0.0000 C   0  0  0  0  0  0  0  0  0  0  0  0
   -0.7500    1.2990    0.0000 C   0  0  0  0  0  0  0  0  0  0  0  0
   -1.5000    2.5981    0.0000 C   0  0  0  0  0  0  0  0  0  0  0  0
   -0.7500    3.8971    0.0000 C   0  0  0  0  0  0  0  0  0  0  0  0
   -1.5000    5.1962    0.0000 C   0  0  0  0  0  0  0  0  0  0  0  0
   -3.0000    5.1962    0.0000 C   0  0  0  0  0  0  0  0  0  0  0  0
   -3.7500    6.4952    0.0000 O   0  0  0  0  0  0  0  0  0  0  0  0
   -3.0000    7.7942    0.0000 C   0  0  0  0  0  0  0  0  0  0  0  0
   -3.7500    9.0933    0.0000 C   0  0  0  0  0  0  0  0  0  0  0  0
   -3.0000   10.3923    0.0000 N   0  0  0  0  0  0  0  0  0  0  0  0
   -1.5000   10.3923    0.0000 C   0  0  0  0  0  0  0  0  0  0  0  0
   -0.7500   11.6913    0.0000 C   0  0  0  0  0  0  0  0  0  0  0  0
   -1.5000   12.9904    0.0000 O   0  0  0  0  0  0  0  0  0  0  0  0
   -3.0000   12.9904    0.0000 C   0  0  0  0  0  0  0  0  0  0  0  0
   -3.7500   11.6913    0.0000 C   0  0  0  0  0  0  0  0  0  0  0  0
   -3.7500    3.8971    0.0000 C   0  0  0  0  0  0  0  0  0  0  0  0
   -5.2500    3.8971    0.0000 C   0  0  0  0  0  0  0  0  0  0  0  0
   -6.0000    5.1962    0.0000 O   0  0  0  0  0  0  0  0  0  0  0  0
   -6.0000    2.5981    0.0000 O   0  0  0  0  0  0  0  0  0  0  0  0
   -3.0000    2.5981    0.0000 C   0  0  0  0  0  0  0  0  0  0  0  0
    0.7500    1.2990    0.0000 C   0  0  0  0  0  0  0  0  0  0  0  0
  1  2  1  0
  2  3  2  0
  3  4  1  0
  4  5  1  0
  5  6  1  0
  6  7  2  0
  7  8  1  0
  8  9  2  0
  9 10  1  0
 10 11  1  0
 11 12  1  0
 11 13  1  0
 11 14  1  0
 10 15  2  0
  4 16  2  0
 16 17  1  0
 17 18  1  0
 18 19  2  0
 19 20  1  0
 20 21  2  0
 21 22  1  0
 22 23  1  0
 23 24  1  0
 24 25  1  0
 25 26  1  0
 26 27  1  0
 27 28  1  0
 28 29  1  0
 29 30  1  0
 21 31  1  0
 31 32  1  0
 32 33  2  0
 32 34  1  0
 31 35  2  0
 17 36  2  0
 36  2  1  0
 15  6  1  0
 35 18  1  0
 30 25  1  0
M  END
>  <Compound_ID>  (159) 
CHEMBL3917959

>  <Molecule Name>  (159) 
nan

>  <Molecular Weight>  (159) 
502.49

>  <AlogP>  (159) 
4.62

>  <Smiles>  (159) 
Cc1cc(Nc2nccc(C(F)(F)F)n2)cc(-c2ccc(OCCN3CCOCC3)c(C(=O)O)c2)c1

>  <Standard Type>  (159) 
IC50

>  <Standard Relation>  (159) 
'='

>  <Standard Units>  (159) 
nM

>  <Standard Value>  (159) 
35.7

>  <Assay ChEMBL ID>  (159) 
CHEMBL3888530

>  <Assay Description>  (159) 
Homogeneous Time-Resolved Fluorescence (HTRF) Assay: A recombinant GST-hSYK fusion protein was used to measure potency of compounds to inhibit human Syk activity. The recombinant human GST-SYK (Carna Biosciences #08-176) (5 μM final concentration) was incubated with various concentrations of the inhibitor diluted in DMSO (0.1% final concentration) for 10 minutes at room temperature in 15 mM Tris-HCl (pH 7.5), 0.01% tween 20, 2 mM DTT in 384 well plate format. To initiate the reaction the biotinylated substrate peptide (250 nM final concentration) that contains the phosphorylation site for Syk was added with magnesium (5 mM final concentration) and ATP (25 μM final concentration). Final volume of the reaction was 10 μL. Phosphorylation of the peptide was allowed to proceed for 45' at room temperature. To quench the reaction and detect the phosphorylated product, 2 nM of a Europium-anti-phosphotyrosine antibody (Perkin Elmer #AD0161) and 70 nM SA-APC (Perkin-Elmer #CR130-100) were added together in 15 mM Tris pH 7.5, 40 mM EDTA, 0.01% tween 20. Final volume of the quenching solution was 10 μL. The resulting HTRF signal was measured after 30 minutes on an EnVision (Perkin-Elmer) reader using a time-resolved fluorescence protocol.

>  <BAO Format ID>  (159) 
BAO_0000357

>  <BAO Label>  (159) 
single protein format

>  <Assay Organism>  (159) 
Homo sapiens

>  <Target ChEMBL ID>  (159) 
CHEMBL2599

>  <Target Name>  (159) 
Tyrosine-protein kinase SYK

>  <Target Organism>  (159) 
Homo sapiens

>  <Target Type>  (159) 
SINGLE PROTEIN

>  <Document ChEMBL ID>  (159) 
CHEMBL3886750

>  <Source Description>  (159) 
BindingDB Database

>  <Document Journal>  (159) 
nan

>  <Document Year>  (159) 
2016.0

>  <Active>  (159) 
1.0

>  <bits>  (159) 
<rdkit.DataStructs.cDataStructs.ExplicitBitVect object at 0x00000193F3404580>

>  <Group>  (159) 
G2

$$$$

     RDKit          2D

 27 29  0  0  0  0  0  0  0  0999 V2000
    7.5000   -2.5981    0.0000 C   0  0  0  0  0  0  0  0  0  0  0  0
    6.0000   -2.5981    0.0000 O   0  0  0  0  0  0  0  0  0  0  0  0
    5.2500   -1.2990    0.0000 C   0  0  0  0  0  0  0  0  0  0  0  0
    3.7500   -1.2990    0.0000 C   0  0  0  0  0  0  0  0  0  0  0  0
    3.0000    0.0000    0.0000 N   0  0  0  0  0  0  0  0  0  0  0  0
    1.5000    0.0000    0.0000 C   0  0  0  0  0  0  0  0  0  0  0  0
    0.7500   -1.2990    0.0000 N   0  0  0  0  0  0  0  0  0  0  0  0
   -0.7500   -1.2990    0.0000 C   0  0  0  0  0  0  0  0  0  0  0  0
   -1.5000   -2.5981    0.0000 C   0  0  0  0  0  0  0  0  0  0  0  0
   -3.0000   -2.5981    0.0000 C   0  0  0  0  0  0  0  0  0  0  0  0
   -3.7500   -3.8971    0.0000 C   0  0  0  0  0  0  0  0  0  0  0  0
   -3.0000   -5.1962    0.0000 C   0  0  0  0  0  0  0  0  0  0  0  0
   -1.5000   -5.1962    0.0000 C   0  0  0  0  0  0  0  0  0  0  0  0
   -0.7500   -6.4952    0.0000 S   0  0  0  0  0  0  0  0  0  0  0  0
   -0.0000   -7.7942    0.0000 N   0  0  0  0  0  0  0  0  0  0  0  0
   -2.0490   -7.2452    0.0000 O   0  0  0  0  0  0  0  0  0  0  0  0
    0.5490   -5.7452    0.0000 O   0  0  0  0  0  0  0  0  0  0  0  0
   -0.7500   -3.8971    0.0000 C   0  0  0  0  0  0  0  0  0  0  0  0
   -1.5000    0.0000    0.0000 C   0  0  0  0  0  0  0  0  0  0  0  0
   -0.7500    1.2990    0.0000 C   0  0  0  0  0  0  0  0  0  0  0  0
   -1.5000    2.5981    0.0000 N   0  0  0  0  0  0  0  0  0  0  0  0
   -0.7500    3.8971    0.0000 C   0  0  0  0  0  0  0  0  0  0  0  0
    0.7500    3.8971    0.0000 N   0  0  0  0  0  0  0  0  0  0  0  0
    1.5000    5.1962    0.0000 C   0  0  0  0  0  0  0  0  0  0  0  0
    1.5000    2.5981    0.0000 C   0  0  0  0  0  0  0  0  0  0  0  0
    3.0000    2.5981    0.0000 O   0  0  0  0  0  0  0  0  0  0  0  0
    0.7500    1.2990    0.0000 C   0  0  0  0  0  0  0  0  0  0  0  0
  1  2  1  0
  2  3  1  0
  3  4  1  0
  4  5  1  0
  5  6  1  0
  6  7  2  0
  7  8  1  0
  8  9  1  0
  9 10  2  0
 10 11  1  0
 11 12  2  0
 12 13  1  0
 13 14  1  0
 14 15  1  0
 14 16  2  0
 14 17  2  0
 13 18  2  0
  8 19  2  0
 19 20  1  0
 20 21  1  0
 21 22  2  0
 22 23  1  0
 23 24  1  0
 23 25  1  0
 25 26  2  0
 25 27  1  0
 27  6  1  0
 18  9  1  0
 27 20  2  0
M  END
>  <Compound_ID>  (160) 
CHEMBL3641318

>  <Molecule Name>  (160) 
nan

>  <Molecular Weight>  (160) 
389.44

>  <AlogP>  (160) 
0.70

>  <Smiles>  (160) 
COCCNc1nc(-c2cccc(S(N)(=O)=O)c2)cc2ncn(C)c(=O)c12

>  <Standard Type>  (160) 
IC50

>  <Standard Relation>  (160) 
'='

>  <Standard Units>  (160) 
nM

>  <Standard Value>  (160) 
92.0

>  <Assay ChEMBL ID>  (160) 
CHEMBL3705362

>  <Assay Description>  (160) 
Mobility-Shift kinase assay: Compounds of the examples provided herein were assessed for their ability to inhibit Syk kinase by utilizing Caliper Life Sciences' proprietary LabChip technology. The off-chip incubation mobility-shift kinase assay uses a microfluidic chip to measure the conversion of a fluorescent peptide substrate to a phosphorylated product. The reaction mixture, from a microtiter plate well, is introduced through a capillary sipper onto the chip, where the nonphosphorylated substrate and phosphorylated product are separated by electrophoresis and detected via laser induced fluorescence. The signature of the fluorescence signal over time reveals the extent of the reaction. The phosphorylated product migrates through the chip faster than the non-phosphorylated substrate, and signals from the two forms of the peptide appear as distinct peaks.

>  <BAO Format ID>  (160) 
BAO_0000357

>  <BAO Label>  (160) 
single protein format

>  <Assay Organism>  (160) 
Homo sapiens

>  <Target ChEMBL ID>  (160) 
CHEMBL2599

>  <Target Name>  (160) 
Tyrosine-protein kinase SYK

>  <Target Organism>  (160) 
Homo sapiens

>  <Target Type>  (160) 
SINGLE PROTEIN

>  <Document ChEMBL ID>  (160) 
CHEMBL3639055

>  <Source Description>  (160) 
BindingDB Database

>  <Document Journal>  (160) 
nan

>  <Document Year>  (160) 
2014.0

>  <Active>  (160) 
1.0

>  <bits>  (160) 
<rdkit.DataStructs.cDataStructs.ExplicitBitVect object at 0x00000193F3405BD0>

>  <Group>  (160) 
G2

$$$$

     RDKit          2D

 32 36  0  0  0  0  0  0  0  0999 V2000
    3.0000    0.0000    0.0000 C   0  0  0  0  0  0  0  0  0  0  0  0
    1.5000    0.0000    0.0000 N   0  0  0  0  0  0  0  0  0  0  0  0
    0.7500   -1.2990    0.0000 C   0  0  0  0  0  0  0  0  0  0  0  0
   -0.7500   -1.2990    0.0000 N   0  0  0  0  0  0  0  0  0  0  0  0
   -1.5000    0.0000    0.0000 C   0  0  0  0  0  0  0  0  0  0  0  0
   -3.0000    0.0000    0.0000 C   0  0  0  0  0  0  0  0  0  0  0  0
   -3.7500    1.2990    0.0000 C   0  0  0  0  0  0  0  0  0  0  0  0
   -5.2500    1.2990    0.0000 C   0  0  0  0  0  0  0  0  0  0  0  0
   -6.0000    2.5981    0.0000 C   0  0  0  0  0  0  0  0  0  0  0  0
   -7.5000    2.5981    0.0000 C   0  0  0  0  0  0  0  0  0  0  0  0
   -8.2500    1.2990    0.0000 C   0  0  0  0  0  0  0  0  0  0  0  0
   -9.7500    1.2990    0.0000 N   0  0  0  0  0  0  0  0  0  0  0  0
  -10.5000    2.5981    0.0000 C   0  0  0  0  0  0  0  0  0  0  0  0
  -12.0000    2.5981    0.0000 C   0  0  0  0  0  0  0  0  0  0  0  0
  -12.7500    1.2990    0.0000 O   0  0  0  0  0  0  0  0  0  0  0  0
  -12.0000    0.0000    0.0000 C   0  0  0  0  0  0  0  0  0  0  0  0
  -10.5000    0.0000    0.0000 C   0  0  0  0  0  0  0  0  0  0  0  0
   -7.5000    0.0000    0.0000 C   0  0  0  0  0  0  0  0  0  0  0  0
   -6.0000    0.0000    0.0000 C   0  0  0  0  0  0  0  0  0  0  0  0
   -3.0000    2.5981    0.0000 N   0  0  0  0  0  0  0  0  0  0  0  0
   -1.5000    2.5981    0.0000 C   0  0  0  0  0  0  0  0  0  0  0  0
   -0.7500    3.8971    0.0000 O   0  0  0  0  0  0  0  0  0  0  0  0
   -1.5000    5.1962    0.0000 C   0  0  0  0  0  0  0  0  0  0  0  0
   -0.7500    6.4952    0.0000 C   0  0  0  0  0  0  0  0  0  0  0  0
   -1.5000    7.7942    0.0000 C   0  0  0  0  0  0  0  0  0  0  0  0
   -3.0000    7.7942    0.0000 C   0  0  0  0  0  0  0  0  0  0  0  0
   -3.7500    9.0933    0.0000 N   0  0  0  0  0  0  0  0  0  0  0  0
   -3.7500    6.4952    0.0000 C   0  0  0  0  0  0  0  0  0  0  0  0
   -3.0000    5.1962    0.0000 C   0  0  0  0  0  0  0  0  0  0  0  0
   -0.7500    1.2990    0.0000 C   0  0  0  0  0  0  0  0  0  0  0  0
    0.7500    1.2990    0.0000 C   0  0  0  0  0  0  0  0  0  0  0  0
    1.5000    2.5981    0.0000 O   0  0  0  0  0  0  0  0  0  0  0  0
  1  2  1  0
  2  3  1  0
  3  4  2  0
  4  5  1  0
  5  6  2  0
  6  7  1  0
  7  8  1  0
  8  9  2  0
  9 10  1  0
 10 11  2  0
 11 12  1  0
 12 13  1  0
 13 14  1  0
 14 15  1  0
 15 16  1  0
 16 17  1  0
 11 18  1  0
 18 19  2  0
  7 20  2  0
 20 21  1  0
 21 22  1  0
 23 22  1  6
 23 24  1  0
 24 25  1  0
 25 26  1  0
 26 27  1  6
 26 28  1  0
 28 29  1  0
 21 30  2  0
 30 31  1  0
 31 32  2  0
 31  2  1  0
 30  5  1  0
 19  8  1  0
 29 23  1  0
 17 12  1  0
M  END
>  <Compound_ID>  (161) 
CHEMBL3643529

>  <Molecule Name>  (161) 
nan

>  <Molecular Weight>  (161) 
435.53

>  <AlogP>  (161) 
2.48

>  <Smiles>  (161) 
Cn1cnc2cc(-c3ccc(N4CCOCC4)cc3)nc(O[C@H]3CC[C@@H](N)CC3)c2c1=O

>  <Standard Type>  (161) 
IC50

>  <Standard Relation>  (161) 
'='

>  <Standard Units>  (161) 
nM

>  <Standard Value>  (161) 
5.31

>  <Assay ChEMBL ID>  (161) 
CHEMBL3705362

>  <Assay Description>  (161) 
Mobility-Shift kinase assay: Compounds of the examples provided herein were assessed for their ability to inhibit Syk kinase by utilizing Caliper Life Sciences' proprietary LabChip technology. The off-chip incubation mobility-shift kinase assay uses a microfluidic chip to measure the conversion of a fluorescent peptide substrate to a phosphorylated product. The reaction mixture, from a microtiter plate well, is introduced through a capillary sipper onto the chip, where the nonphosphorylated substrate and phosphorylated product are separated by electrophoresis and detected via laser induced fluorescence. The signature of the fluorescence signal over time reveals the extent of the reaction. The phosphorylated product migrates through the chip faster than the non-phosphorylated substrate, and signals from the two forms of the peptide appear as distinct peaks.

>  <BAO Format ID>  (161) 
BAO_0000357

>  <BAO Label>  (161) 
single protein format

>  <Assay Organism>  (161) 
Homo sapiens

>  <Target ChEMBL ID>  (161) 
CHEMBL2599

>  <Target Name>  (161) 
Tyrosine-protein kinase SYK

>  <Target Organism>  (161) 
Homo sapiens

>  <Target Type>  (161) 
SINGLE PROTEIN

>  <Document ChEMBL ID>  (161) 
CHEMBL3639055

>  <Source Description>  (161) 
BindingDB Database

>  <Document Journal>  (161) 
nan

>  <Document Year>  (161) 
2014.0

>  <Active>  (161) 
1.0

>  <bits>  (161) 
<rdkit.DataStructs.cDataStructs.ExplicitBitVect object at 0x00000193F3406E30>

>  <Group>  (161) 
G2

$$$$

     RDKit          2D

 31 35  0  0  0  0  0  0  0  0999 V2000
   -2.9520   -4.6564    0.0000 C   0  0  0  0  0  0  0  0  0  0  0  0
   -2.6401   -3.1891    0.0000 C   0  0  0  0  0  0  0  0  0  0  0  0
   -3.7548   -2.1855    0.0000 O   0  0  0  0  0  0  0  0  0  0  0  0
   -1.2135   -2.7256    0.0000 C   0  0  0  0  0  0  0  0  0  0  0  0
   -0.0000   -3.6073    0.0000 C   0  0  0  0  0  0  0  0  0  0  0  0
    1.2135   -2.7256    0.0000 N   0  0  0  0  0  0  0  0  0  0  0  0
    0.7500   -1.2990    0.0000 C   0  0  0  0  0  0  0  0  0  0  0  0
    1.5000    0.0000    0.0000 C   0  0  0  0  0  0  0  0  0  0  0  0
    0.7500    1.2990    0.0000 C   0  0  0  0  0  0  0  0  0  0  0  0
   -0.7500    1.2990    0.0000 C   0  0  0  0  0  0  0  0  0  0  0  0
   -1.5000    2.5981    0.0000 N   0  0  0  0  0  0  0  0  0  0  0  0
   -0.7500    3.8971    0.0000 C   0  0  0  0  0  0  0  0  0  0  0  0
    0.7500    3.8971    0.0000 N   0  0  0  0  0  0  0  0  0  0  0  0
    1.5000    5.1962    0.0000 C   0  0  0  0  0  0  0  0  0  0  0  0
    0.7500    6.4952    0.0000 C   0  0  0  0  0  0  0  0  0  0  0  0
   -0.7500    6.4952    0.0000 C   0  0  0  0  0  0  0  0  0  0  0  0
   -1.5000    7.7942    0.0000 N   0  0  0  0  0  0  0  0  0  0  0  0
   -2.9918    7.9510    0.0000 C   0  0  0  0  0  0  0  0  0  0  0  0
   -3.3037    9.4182    0.0000 C   0  0  0  0  0  0  0  0  0  0  0  0
   -4.6740   10.0283    0.0000 C   0  0  0  0  0  0  0  0  0  0  0  0
   -4.8308   11.5201    0.0000 N   0  0  0  0  0  0  0  0  0  0  0  0
   -3.8868   12.6858    0.0000 C   0  0  0  0  0  0  0  0  0  0  0  0
   -5.0525   13.6298    0.0000 C   0  0  0  0  0  0  0  0  0  0  0  0
   -5.2093   15.1216    0.0000 O   0  0  0  0  0  0  0  0  0  0  0  0
   -5.9965   12.4641    0.0000 C   0  0  0  0  0  0  0  0  0  0  0  0
   -2.0046   10.1682    0.0000 C   0  0  0  0  0  0  0  0  0  0  0  0
   -1.8478   11.6600    0.0000 C   0  0  0  0  0  0  0  0  0  0  0  0
   -0.8899    9.1645    0.0000 N   0  0  0  0  0  0  0  0  0  0  0  0
   -1.5000    5.1962    0.0000 N   0  0  0  0  0  0  0  0  0  0  0  0
   -1.5000    0.0000    0.0000 C   0  0  0  0  0  0  0  0  0  0  0  0
   -0.7500   -1.2990    0.0000 C   0  0  0  0  0  0  0  0  0  0  0  0
  1  2  1  0
  2  3  2  0
  2  4  1  0
  4  5  2  0
  5  6  1  0
  6  7  1  0
  7  8  2  0
  8  9  1  0
  9 10  2  0
 10 11  1  0
 11 12  1  0
 12 13  2  0
 13 14  1  0
 14 15  2  0
 15 16  1  0
 16 17  1  0
 17 18  1  0
 18 19  2  0
 19 20  1  0
 20 21  1  0
 21 22  1  0
 22 23  1  0
 23 24  1  0
 23 25  1  0
 19 26  1  0
 26 27  1  0
 26 28  2  0
 16 29  2  0
 10 30  1  0
 30 31  2  0
 31  4  1  0
 31  7  1  0
 29 12  1  0
 28 17  1  0
 25 21  1  0
M  END
>  <Compound_ID>  (162) 
CHEMBL3657552

>  <Molecule Name>  (162) 
nan

>  <Molecular Weight>  (162) 
417.47

>  <AlogP>  (162) 
2.57

>  <Smiles>  (162) 
CC(=O)c1c[nH]c2ccc(Nc3nccc(-n4cc(CN5CC(O)C5)c(C)n4)n3)cc12

>  <Standard Type>  (162) 
IC50

>  <Standard Relation>  (162) 
'='

>  <Standard Units>  (162) 
nM

>  <Standard Value>  (162) 
1.3

>  <Assay ChEMBL ID>  (162) 
CHEMBL3705866

>  <Assay Description>  (162) 
Kinase Inhibition Assay: Compounds of the invention were initially diluted to 10 mM in 100% DMSO (CALBIOCHEM) for storage and made into kinase buffer solution to create a compound concentration ranging from 1 uM and 10 uM. Serial dilutions of compounds of the invention were dispensed into a 96-well plate (GREINER BIOSCIENCES) at 6 uL each. Purified full-length human SYK, and KDR (CARNA BIOSCIENCES) were diluted in kinase buffer and added to the compound solutions and pre-incubated for 30 minutes at room temperature. Next, ATP (TEKNOVA) of Km (15 uM) and substrate solution (suggested manufacture substrates of PerkinElmer, for example, Ulight-TK peptide for SYK and Ulight-JAK1 for KDR (PERKINELMER)) was added (12 uL each) to the wells containing the compound solution and enzyme. The reaction mixture was incubated for 1 hour. Following the incubation, the stop solution made with EDTA, water, and Lance detection buffer (PERKINELMER) was added (12 uL each) to stop phosphorylation.

>  <BAO Format ID>  (162) 
BAO_0000357

>  <BAO Label>  (162) 
single protein format

>  <Assay Organism>  (162) 
Homo sapiens

>  <Target ChEMBL ID>  (162) 
CHEMBL2599

>  <Target Name>  (162) 
Tyrosine-protein kinase SYK

>  <Target Organism>  (162) 
Homo sapiens

>  <Target Type>  (162) 
SINGLE PROTEIN

>  <Document ChEMBL ID>  (162) 
CHEMBL3638941

>  <Source Description>  (162) 
BindingDB Database

>  <Document Journal>  (162) 
nan

>  <Document Year>  (162) 
2014.0

>  <Active>  (162) 
1.0

>  <bits>  (162) 
<rdkit.DataStructs.cDataStructs.ExplicitBitVect object at 0x00000193F3407E60>

>  <Group>  (162) 
G2

$$$$

     RDKit          2D

 32 35  0  0  0  0  0  0  0  0999 V2000
   -3.7500  -14.2894    0.0000 C   0  0  0  0  0  0  0  0  0  0  0  0
   -3.0000  -12.9904    0.0000 C   0  0  0  0  0  0  0  0  0  0  0  0
   -3.7500  -11.6913    0.0000 C   0  0  0  0  0  0  0  0  0  0  0  0
   -1.5000  -12.9904    0.0000 O   0  0  0  0  0  0  0  0  0  0  0  0
   -0.7500  -11.6913    0.0000 C   0  0  0  0  0  0  0  0  0  0  0  0
   -1.5000  -10.3923    0.0000 C   0  0  0  0  0  0  0  0  0  0  0  0
   -0.7500   -9.0933    0.0000 C   0  0  0  0  0  0  0  0  0  0  0  0
    0.7500   -9.0933    0.0000 C   0  0  0  0  0  0  0  0  0  0  0  0
    1.5000   -7.7942    0.0000 N   0  0  0  0  0  0  0  0  0  0  0  0
    0.7500   -6.4952    0.0000 C   0  0  0  0  0  0  0  0  0  0  0  0
    1.5000   -5.1962    0.0000 N   0  0  0  0  0  0  0  0  0  0  0  0
    0.7500   -3.8971    0.0000 C   0  0  0  0  0  0  0  0  0  0  0  0
    1.5000   -2.5981    0.0000 N   0  0  0  0  0  0  0  0  0  0  0  0
    0.7500   -1.2990    0.0000 C   0  0  0  0  0  0  0  0  0  0  0  0
    1.5000    0.0000    0.0000 C   0  0  0  0  0  0  0  0  0  0  0  0
    0.7500    1.2990    0.0000 C   0  0  0  0  0  0  0  0  0  0  0  0
   -0.7500    1.2990    0.0000 C   0  0  0  0  0  0  0  0  0  0  0  0
   -1.5000    0.0000    0.0000 C   0  0  0  0  0  0  0  0  0  0  0  0
   -2.9672    0.3119    0.0000 C   0  0  0  0  0  0  0  0  0  0  0  0
   -3.1240    1.8037    0.0000 N   0  0  0  0  0  0  0  0  0  0  0  0
   -1.7537    2.4138    0.0000 N   0  0  0  0  0  0  0  0  0  0  0  0
   -1.4418    3.8810    0.0000 C   0  0  0  0  0  0  0  0  0  0  0  0
   -2.5565    4.8847    0.0000 C   0  0  0  0  0  0  0  0  0  0  0  0
   -2.2447    6.3519    0.0000 C   0  0  0  0  0  0  0  0  0  0  0  0
   -3.3594    7.3556    0.0000 O   0  0  0  0  0  0  0  0  0  0  0  0
   -0.7500   -1.2990    0.0000 C   0  0  0  0  0  0  0  0  0  0  0  0
   -0.7500   -3.8971    0.0000 N   0  0  0  0  0  0  0  0  0  0  0  0
   -1.5000   -5.1962    0.0000 C   0  0  0  0  0  0  0  0  0  0  0  0
   -0.7500   -6.4952    0.0000 C   0  0  0  0  0  0  0  0  0  0  0  0
   -1.5000   -7.7942    0.0000 F   0  0  0  0  0  0  0  0  0  0  0  0
    1.5000  -10.3923    0.0000 C   0  0  0  0  0  0  0  0  0  0  0  0
    0.7500  -11.6913    0.0000 C   0  0  0  0  0  0  0  0  0  0  0  0
  1  2  1  0
  2  3  1  0
  2  4  1  0
  4  5  1  0
  5  6  2  0
  6  7  1  0
  7  8  2  0
  8  9  1  0
  9 10  1  0
 10 11  2  0
 11 12  1  0
 12 13  1  0
 13 14  1  0
 14 15  2  0
 15 16  1  0
 16 17  2  0
 17 18  1  0
 18 19  1  0
 19 20  2  0
 20 21  1  0
 21 22  1  0
 22 23  1  0
 23 24  1  0
 24 25  1  0
 18 26  2  0
 12 27  2  0
 27 28  1  0
 28 29  2  0
 29 30  1  0
  8 31  1  0
 31 32  2  0
 32  5  1  0
 29 10  1  0
 26 14  1  0
 21 17  1  0
M  END
>  <Compound_ID>  (163) 
CHEMBL3902134

>  <Molecule Name>  (163) 
nan

>  <Molecular Weight>  (163) 
436.49

>  <AlogP>  (163) 
4.62

>  <Smiles>  (163) 
CC(C)Oc1ccc(Nc2nc(Nc3ccc4c(cnn4CCCO)c3)ncc2F)cc1

>  <Standard Type>  (163) 
IC50

>  <Standard Relation>  (163) 
'='

>  <Standard Units>  (163) 
nM

>  <Standard Value>  (163) 
57.0

>  <Assay ChEMBL ID>  (163) 
CHEMBL3889292

>  <Assay Description>  (163) 
Biochemical Assay: Several 2,4-pyrimidinediamine compounds were tested for the ability to inhibit Syk kinase catalyzed phosphorylation of a peptide substrate in a biochemical fluorescenced polarization assay with isolated Syk kinase. In this experiment, Compounds were diluted to 1% DMSO in kinase buffer (20 mM HEPES, pH 7.4, 5 mM MgCl2, 2 mM MnCl2, 1 mM DTT, 0.1 mg/mL acetylated Bovine Gamma Globulin). Compound in 1% DMSO (0.2% DMSO final) was mixed with ATP/substrate solution at room temperature. Syk kinase (Upstate, Lake Placid N.Y.) was added to a final reaction volume of 20 uL, and the reaction was incubated for 30 minutes at room temperature. Final enzyme reaction conditions were 20 mM HEPES, pH 7.4, 5 mM MgCl2, 2 mM MnCl2, 1 mM DTT, 0.1 mg/mL acetylated Bovine Gamma Globulin, 0.125 ng Syk, 4 uM ATP, 2.5 uM peptide substrate (biotin-EQEDEPEGDYEEVLE-CONH2, SynPep Corporation). EDTA (10 mM final)/anti-phosphotyrosine antibody (1x final)/fluorescent phosphopeptide tracer (0.5x final) was added in FP Dilution Buffer to stop the reaction for a total volume of 40 uL according to manufacturer's instructions (PanVera Corporation) The plate was incubated for 30 minutes in the dark at room temperature. Plates were read on a Polarion fluorescence polarization plate reader (Tecan). Data were converted to amount of phosphopeptide present using a calibration curve generated by competition with the phosphopeptide competitor provided in the Tyrosine Kinase Assay Kit, Green (PanVera Corporation).

>  <BAO Format ID>  (163) 
BAO_0000357

>  <BAO Label>  (163) 
single protein format

>  <Assay Organism>  (163) 
Homo sapiens

>  <Target ChEMBL ID>  (163) 
CHEMBL2599

>  <Target Name>  (163) 
Tyrosine-protein kinase SYK

>  <Target Organism>  (163) 
Homo sapiens

>  <Target Type>  (163) 
SINGLE PROTEIN

>  <Document ChEMBL ID>  (163) 
CHEMBL3887020

>  <Source Description>  (163) 
BindingDB Database

>  <Document Journal>  (163) 
nan

>  <Document Year>  (163) 
2016.0

>  <Active>  (163) 
1.0

>  <bits>  (163) 
<rdkit.DataStructs.cDataStructs.ExplicitBitVect object at 0x00000193F3405850>

>  <Group>  (163) 
G2

$$$$

     RDKit          2D

 34 38  0  0  0  0  0  0  0  0999 V2000
    3.0000    0.0000    0.0000 C   0  0  0  0  0  0  0  0  0  0  0  0
    1.5000    0.0000    0.0000 C   0  0  0  0  0  0  0  0  0  0  0  0
    0.7500   -1.2990    0.0000 C   0  0  0  0  0  0  0  0  0  0  0  0
   -0.7500   -1.2990    0.0000 C   0  0  0  0  0  0  0  0  0  0  0  0
   -1.5000   -2.5981    0.0000 N   0  0  0  0  0  0  0  0  0  0  0  0
   -3.0000   -2.5981    0.0000 C   0  0  0  0  0  0  0  0  0  0  0  0
   -3.7500   -1.2990    0.0000 N   0  0  0  0  0  0  0  0  0  0  0  0
   -5.2500   -1.2990    0.0000 C   0  0  0  0  0  0  0  0  0  0  0  0
   -6.0000   -2.5981    0.0000 C   0  0  0  0  0  0  0  0  0  0  0  0
   -5.2500   -3.8971    0.0000 C   0  0  0  0  0  0  0  0  0  0  0  0
   -6.0000   -5.1962    0.0000 C   0  0  0  0  0  0  0  0  0  0  0  0
   -5.3899   -6.5665    0.0000 C   0  0  0  0  0  0  0  0  0  0  0  0
   -6.5046   -7.5702    0.0000 C   0  0  0  0  0  0  0  0  0  0  0  0
   -7.8037   -6.8202    0.0000 C   0  0  0  0  0  0  0  0  0  0  0  0
   -7.4918   -5.3529    0.0000 S   0  0  0  0  0  0  0  0  0  0  0  0
   -3.7500   -3.8971    0.0000 N   0  0  0  0  0  0  0  0  0  0  0  0
   -1.5000    0.0000    0.0000 C   0  0  0  0  0  0  0  0  0  0  0  0
   -0.7500    1.2990    0.0000 C   0  0  0  0  0  0  0  0  0  0  0  0
   -1.5000    2.5981    0.0000 C   0  0  0  0  0  0  0  0  0  0  0  0
   -2.9918    2.7549    0.0000 C   0  0  0  0  0  0  0  0  0  0  0  0
   -3.3037    4.2221    0.0000 N   0  0  0  0  0  0  0  0  0  0  0  0
   -2.0046    4.9721    0.0000 C   0  0  0  0  0  0  0  0  0  0  0  0
   -1.8478    6.4639    0.0000 C   0  0  0  0  0  0  0  0  0  0  0  0
   -0.4059    6.0504    0.0000 O   0  0  0  0  0  0  0  0  0  0  0  0
   -3.3442    6.3592    0.0000 C   0  0  0  0  0  0  0  0  0  0  0  0
   -4.1830    7.6028    0.0000 C   0  0  0  0  0  0  0  0  0  0  0  0
   -3.5254    8.9510    0.0000 C   0  0  0  0  0  0  0  0  0  0  0  0
   -4.3642   10.1945    0.0000 C   0  0  0  0  0  0  0  0  0  0  0  0
   -5.8605   10.0899    0.0000 O   0  0  0  0  0  0  0  0  0  0  0  0
   -3.7066   11.5427    0.0000 O   0  0  0  0  0  0  0  0  0  0  0  0
   -2.0291    9.0556    0.0000 C   0  0  0  0  0  0  0  0  0  0  0  0
   -1.1903    7.8121    0.0000 C   0  0  0  0  0  0  0  0  0  0  0  0
   -0.8899    3.9684    0.0000 S   0  0  0  0  0  0  0  0  0  0  0  0
    0.7500    1.2990    0.0000 C   0  0  0  0  0  0  0  0  0  0  0  0
  1  2  1  0
  2  3  2  0
  3  4  1  0
  4  5  1  0
  5  6  1  0
  6  7  2  0
  7  8  1  0
  8  9  2  0
  9 10  1  0
 10 11  1  0
 11 12  2  0
 12 13  1  0
 13 14  2  0
 14 15  1  0
 10 16  2  0
  4 17  2  0
 17 18  1  0
 18 19  1  0
 19 20  2  0
 20 21  1  0
 21 22  2  0
 22 23  1  0
 23 24  1  0
 23 25  1  0
 25 26  1  0
 26 27  1  0
 27 28  1  0
 28 29  2  0
 28 30  1  0
 27 31  1  0
 31 32  1  0
 22 33  1  0
 18 34  2  0
 34  2  1  0
 16  6  1  0
 33 19  1  0
 15 11  1  0
 32 23  1  0
M  END
>  <Compound_ID>  (164) 
CHEMBL3685806

>  <Molecule Name>  (164) 
nan

>  <Molecular Weight>  (164) 
492.63

>  <AlogP>  (164) 
5.84

>  <Smiles>  (164) 
Cc1cc(Nc2nccc(-c3cccs3)n2)cc(-c2cnc(C3(O)CCC(C(=O)O)CC3)s2)c1

>  <Standard Type>  (164) 
IC50

>  <Standard Relation>  (164) 
'='

>  <Standard Units>  (164) 
nM

>  <Standard Value>  (164) 
1.0

>  <Assay ChEMBL ID>  (164) 
CHEMBL3705225

>  <Assay Description>  (164) 
Homogeneous Time-Resolved Fluorescence (HTRF) Assay : A recombinant GST-hSYK fusion protein was used to measure potency of compounds to inhibit human SYK activity. The recombinant human GST-SYK (Carna Biosciences #08-176) (5 pM final concentration) was incubated with various concentrations of the inhibitor diluted in DMSO (0.1% final concentration) for 10 minutes at room temperature in 15 mM Tris-HCl (pH 7.5), 0.01% tween 20, 2 mM DTT in 384 well plate format. To initiate the reaction the biotinylated substrate peptide (250 nM final concentration) that contains the phosphorylation site for SYK was added with magnesium (5 mM final concentration) and ATP (25 μM final concentration). Final volume of the reaction was 10 μL. Phosphorylation of the peptide was allowed to proceed for 45′ at room temperature.

>  <BAO Format ID>  (164) 
BAO_0000357

>  <BAO Label>  (164) 
single protein format

>  <Assay Organism>  (164) 
Homo sapiens

>  <Target ChEMBL ID>  (164) 
CHEMBL2599

>  <Target Name>  (164) 
Tyrosine-protein kinase SYK

>  <Target Organism>  (164) 
Homo sapiens

>  <Target Type>  (164) 
SINGLE PROTEIN

>  <Document ChEMBL ID>  (164) 
CHEMBL3639355

>  <Source Description>  (164) 
BindingDB Database

>  <Document Journal>  (164) 
nan

>  <Document Year>  (164) 
2014.0

>  <Active>  (164) 
1.0

>  <bits>  (164) 
<rdkit.DataStructs.cDataStructs.ExplicitBitVect object at 0x00000193F3405620>

>  <Group>  (164) 
G2

$$$$

     RDKit          2D

 43 47  0  0  0  0  0  0  0  0999 V2000
  -12.0000   -2.5981    0.0000 C   0  0  0  0  0  0  0  0  0  0  0  0
  -10.5000   -2.5981    0.0000 O   0  0  0  0  0  0  0  0  0  0  0  0
   -9.7500   -3.8971    0.0000 C   0  0  0  0  0  0  0  0  0  0  0  0
   -8.2500   -3.8971    0.0000 C   0  0  0  0  0  0  0  0  0  0  0  0
   -7.5000   -2.5981    0.0000 O   0  0  0  0  0  0  0  0  0  0  0  0
   -7.5000   -5.1962    0.0000 N   0  0  0  0  0  0  0  0  0  0  0  0
   -6.0000   -5.1962    0.0000 C   0  0  0  0  0  0  0  0  0  0  0  0
   -5.2500   -3.8971    0.0000 C   0  0  0  0  0  0  0  0  0  0  0  0
   -3.7500   -3.8971    0.0000 C   0  0  0  0  0  0  0  0  0  0  0  0
   -3.0000   -2.5981    0.0000 O   0  0  0  0  0  0  0  0  0  0  0  0
   -1.5000   -2.5981    0.0000 C   0  0  0  0  0  0  0  0  0  0  0  0
   -0.7500   -3.8971    0.0000 C   0  0  0  0  0  0  0  0  0  0  0  0
    0.7500   -3.8971    0.0000 C   0  0  0  0  0  0  0  0  0  0  0  0
    1.5000   -2.5981    0.0000 C   0  0  0  0  0  0  0  0  0  0  0  0
    3.0000   -2.5981    0.0000 N   0  0  0  0  0  0  0  0  0  0  0  0
    3.7500   -3.8971    0.0000 C   0  0  0  0  0  0  0  0  0  0  0  0
    3.0000   -5.1962    0.0000 O   0  0  0  0  0  0  0  0  0  0  0  0
    5.2500   -3.8971    0.0000 N   0  0  0  0  0  0  0  0  0  0  0  0
    6.0000   -5.1962    0.0000 C   0  0  0  0  0  0  0  0  0  0  0  0
    5.3899   -6.5665    0.0000 C   0  0  0  0  0  0  0  0  0  0  0  0
    6.5046   -7.5702    0.0000 C   0  0  0  0  0  0  0  0  0  0  0  0
    6.3478   -9.0619    0.0000 C   0  0  0  0  0  0  0  0  0  0  0  0
    7.8396   -9.2187    0.0000 C   0  0  0  0  0  0  0  0  0  0  0  0
    4.8560   -8.9052    0.0000 C   0  0  0  0  0  0  0  0  0  0  0  0
    6.1910  -10.5537    0.0000 C   0  0  0  0  0  0  0  0  0  0  0  0
    7.8037   -6.8202    0.0000 N   0  0  0  0  0  0  0  0  0  0  0  0
    7.4918   -5.3529    0.0000 N   0  0  0  0  0  0  0  0  0  0  0  0
    8.4955   -4.2382    0.0000 C   0  0  0  0  0  0  0  0  0  0  0  0
    9.9627   -4.5501    0.0000 C   0  0  0  0  0  0  0  0  0  0  0  0
   10.9664   -3.4354    0.0000 C   0  0  0  0  0  0  0  0  0  0  0  0
   10.5029   -2.0088    0.0000 C   0  0  0  0  0  0  0  0  0  0  0  0
   11.5066   -0.8941    0.0000 C   0  0  0  0  0  0  0  0  0  0  0  0
    9.0356   -1.6969    0.0000 C   0  0  0  0  0  0  0  0  0  0  0  0
    8.0320   -2.8116    0.0000 C   0  0  0  0  0  0  0  0  0  0  0  0
    0.7500   -1.2990    0.0000 C   0  0  0  0  0  0  0  0  0  0  0  0
    1.5000    0.0000    0.0000 C   0  0  0  0  0  0  0  0  0  0  0  0
    0.7500    1.2990    0.0000 C   0  0  0  0  0  0  0  0  0  0  0  0
   -0.7500    1.2990    0.0000 C   0  0  0  0  0  0  0  0  0  0  0  0
   -1.5000    0.0000    0.0000 C   0  0  0  0  0  0  0  0  0  0  0  0
   -0.7500   -1.2990    0.0000 C   0  0  0  0  0  0  0  0  0  0  0  0
   -3.0000   -5.1962    0.0000 C   0  0  0  0  0  0  0  0  0  0  0  0
   -3.7500   -6.4952    0.0000 C   0  0  0  0  0  0  0  0  0  0  0  0
   -5.2500   -6.4952    0.0000 N   0  0  0  0  0  0  0  0  0  0  0  0
  1  2  1  0
  2  3  1  0
  3  4  1  0
  4  5  2  0
  4  6  1  0
  6  7  1  0
  7  8  2  0
  8  9  1  0
  9 10  1  0
 10 11  1  0
 11 12  2  0
 12 13  1  0
 13 14  2  0
 14 15  1  0
 15 16  1  0
 16 17  2  0
 16 18  1  0
 18 19  1  0
 19 20  2  0
 20 21  1  0
 21 22  1  0
 22 23  1  0
 22 24  1  0
 22 25  1  0
 21 26  2  0
 26 27  1  0
 27 28  1  0
 28 29  2  0
 29 30  1  0
 30 31  2  0
 31 32  1  0
 31 33  1  0
 33 34  2  0
 14 35  1  0
 35 36  2  0
 36 37  1  0
 37 38  2  0
 38 39  1  0
 39 40  2  0
  9 41  2  0
 41 42  1  0
 42 43  2  0
 43  7  1  0
 40 11  1  0
 27 19  1  0
 34 28  1  0
 40 35  1  0
M  END
>  <Compound_ID>  (165) 
CHEMBL3695569

>  <Molecule Name>  (165) 
nan

>  <Molecular Weight>  (165) 
578.67

>  <AlogP>  (165) 
7.05

>  <Smiles>  (165) 
COCC(=O)Nc1cc(Oc2ccc(NC(=O)Nc3cc(C(C)(C)C)nn3-c3ccc(C)cc3)c3ccccc23)ccn1

>  <Standard Type>  (165) 
IC50

>  <Standard Relation>  (165) 
'='

>  <Standard Units>  (165) 
nM

>  <Standard Value>  (165) 
42.0

>  <Assay ChEMBL ID>  (165) 
CHEMBL3887920

>  <Assay Description>  (165) 
c-Src and Syk Enzyme Inhibition Assay: The inhibitory activities of compounds of the invention against c-Src and Syk enzymes (Invitrogen), are evaluated in a similar fashion to that described hereinabove. The relevant enzyme (3000 ng/mL or 2000 ng/mL respectively, 2.5 uL) is incubated with the test compound (either 4 ug/mL, 0.4 ug/mL, 0.04 ug/mL, or 0.004 ug/mL, 2.5 uL each) for 2 hr at RT. The FRET peptides (8 uM, 2.5 uL), and appropriate ATP solutions (2.5 uL, 800 uM for c-Src, and 60 uM ATP for Syk) are then added to the enzymes/compound mixtures and incubated for 1 hr. Development reagent (protease, 5 uL) is added for 1 hr prior to detection in a fluorescence microplate reader (Varioskan Flash, ThermoFisher Scientific).

>  <BAO Format ID>  (165) 
BAO_0000357

>  <BAO Label>  (165) 
single protein format

>  <Assay Organism>  (165) 
Homo sapiens

>  <Target ChEMBL ID>  (165) 
CHEMBL2599

>  <Target Name>  (165) 
Tyrosine-protein kinase SYK

>  <Target Organism>  (165) 
Homo sapiens

>  <Target Type>  (165) 
SINGLE PROTEIN

>  <Document ChEMBL ID>  (165) 
CHEMBL3886505

>  <Source Description>  (165) 
BindingDB Database

>  <Document Journal>  (165) 
nan

>  <Document Year>  (165) 
2016.0

>  <Active>  (165) 
1.0

>  <bits>  (165) 
<rdkit.DataStructs.cDataStructs.ExplicitBitVect object at 0x00000193F3406180>

>  <Group>  (165) 
G2

$$$$

     RDKit          2D

 26 28  0  0  0  0  0  0  0  0999 V2000
    3.0000    0.0000    0.0000 C   0  0  0  0  0  0  0  0  0  0  0  0
    1.5000    0.0000    0.0000 C   0  0  0  0  0  0  0  0  0  0  0  0
    0.7500   -1.2990    0.0000 C   0  0  0  0  0  0  0  0  0  0  0  0
   -0.7500   -1.2990    0.0000 C   0  0  0  0  0  0  0  0  0  0  0  0
   -1.5000   -2.5981    0.0000 N   0  0  0  0  0  0  0  0  0  0  0  0
   -3.0000   -2.5981    0.0000 C   0  0  0  0  0  0  0  0  0  0  0  0
   -3.7500   -1.2990    0.0000 N   0  0  0  0  0  0  0  0  0  0  0  0
   -5.2500   -1.2990    0.0000 C   0  0  0  0  0  0  0  0  0  0  0  0
   -6.0000   -2.5981    0.0000 C   0  0  0  0  0  0  0  0  0  0  0  0
   -5.2500   -3.8971    0.0000 C   0  0  0  0  0  0  0  0  0  0  0  0
   -6.0000   -5.1962    0.0000 C   0  0  0  0  0  0  0  0  0  0  0  0
   -3.7500   -3.8971    0.0000 N   0  0  0  0  0  0  0  0  0  0  0  0
   -1.5000    0.0000    0.0000 C   0  0  0  0  0  0  0  0  0  0  0  0
   -0.7500    1.2990    0.0000 C   0  0  0  0  0  0  0  0  0  0  0  0
   -1.5000    2.5981    0.0000 C   0  0  0  0  0  0  0  0  0  0  0  0
   -0.7500    3.8971    0.0000 C   0  0  0  0  0  0  0  0  0  0  0  0
   -1.5000    5.1962    0.0000 C   0  0  0  0  0  0  0  0  0  0  0  0
   -3.0000    5.1962    0.0000 C   0  0  0  0  0  0  0  0  0  0  0  0
   -3.7500    3.8971    0.0000 C   0  0  0  0  0  0  0  0  0  0  0  0
   -5.2500    3.8971    0.0000 C   0  0  0  0  0  0  0  0  0  0  0  0
   -6.0000    5.1962    0.0000 C   0  0  0  0  0  0  0  0  0  0  0  0
   -7.5000    5.1962    0.0000 C   0  0  0  0  0  0  0  0  0  0  0  0
   -8.2500    3.8971    0.0000 O   0  0  0  0  0  0  0  0  0  0  0  0
   -8.2500    6.4952    0.0000 O   0  0  0  0  0  0  0  0  0  0  0  0
   -3.0000    2.5981    0.0000 C   0  0  0  0  0  0  0  0  0  0  0  0
    0.7500    1.2990    0.0000 C   0  0  0  0  0  0  0  0  0  0  0  0
  1  2  1  0
  2  3  2  0
  3  4  1  0
  4  5  1  0
  5  6  1  0
  6  7  2  0
  7  8  1  0
  8  9  2  0
  9 10  1  0
 10 11  1  0
 10 12  2  0
  4 13  2  0
 13 14  1  0
 14 15  1  0
 15 16  2  0
 16 17  1  0
 17 18  2  0
 18 19  1  0
 19 20  1  0
 20 21  1  0
 21 22  1  0
 22 23  2  0
 22 24  1  0
 19 25  2  0
 14 26  2  0
 26  2  1  0
 12  6  1  0
 25 15  1  0
M  END
>  <Compound_ID>  (166) 
CHEMBL3929716

>  <Molecule Name>  (166) 
nan

>  <Molecular Weight>  (166) 
347.42

>  <AlogP>  (166) 
4.52

>  <Smiles>  (166) 
Cc1cc(Nc2nccc(C)n2)cc(-c2cccc(CCC(=O)O)c2)c1

>  <Standard Type>  (166) 
IC50

>  <Standard Relation>  (166) 
'='

>  <Standard Units>  (166) 
nM

>  <Standard Value>  (166) 
52.7

>  <Assay ChEMBL ID>  (166) 
CHEMBL3888530

>  <Assay Description>  (166) 
Homogeneous Time-Resolved Fluorescence (HTRF) Assay: A recombinant GST-hSYK fusion protein was used to measure potency of compounds to inhibit human Syk activity. The recombinant human GST-SYK (Carna Biosciences #08-176) (5 μM final concentration) was incubated with various concentrations of the inhibitor diluted in DMSO (0.1% final concentration) for 10 minutes at room temperature in 15 mM Tris-HCl (pH 7.5), 0.01% tween 20, 2 mM DTT in 384 well plate format. To initiate the reaction the biotinylated substrate peptide (250 nM final concentration) that contains the phosphorylation site for Syk was added with magnesium (5 mM final concentration) and ATP (25 μM final concentration). Final volume of the reaction was 10 μL. Phosphorylation of the peptide was allowed to proceed for 45' at room temperature. To quench the reaction and detect the phosphorylated product, 2 nM of a Europium-anti-phosphotyrosine antibody (Perkin Elmer #AD0161) and 70 nM SA-APC (Perkin-Elmer #CR130-100) were added together in 15 mM Tris pH 7.5, 40 mM EDTA, 0.01% tween 20. Final volume of the quenching solution was 10 μL. The resulting HTRF signal was measured after 30 minutes on an EnVision (Perkin-Elmer) reader using a time-resolved fluorescence protocol.

>  <BAO Format ID>  (166) 
BAO_0000357

>  <BAO Label>  (166) 
single protein format

>  <Assay Organism>  (166) 
Homo sapiens

>  <Target ChEMBL ID>  (166) 
CHEMBL2599

>  <Target Name>  (166) 
Tyrosine-protein kinase SYK

>  <Target Organism>  (166) 
Homo sapiens

>  <Target Type>  (166) 
SINGLE PROTEIN

>  <Document ChEMBL ID>  (166) 
CHEMBL3886750

>  <Source Description>  (166) 
BindingDB Database

>  <Document Journal>  (166) 
nan

>  <Document Year>  (166) 
2016.0

>  <Active>  (166) 
1.0

>  <bits>  (166) 
<rdkit.DataStructs.cDataStructs.ExplicitBitVect object at 0x00000193F34069D0>

>  <Group>  (166) 
G2

$$$$

     RDKit          2D

 35 38  0  0  0  0  0  0  0  0999 V2000
  -12.0000    0.0000    0.0000 C   0  0  0  0  0  0  0  0  0  0  0  0
  -10.5000    0.0000    0.0000 N   0  0  0  0  0  0  0  0  0  0  0  0
   -9.7500   -1.2990    0.0000 C   0  0  0  0  0  0  0  0  0  0  0  0
  -10.5000   -2.5981    0.0000 O   0  0  0  0  0  0  0  0  0  0  0  0
   -8.2500   -1.2990    0.0000 C   0  0  0  0  0  0  0  0  0  0  0  0
   -7.5000   -2.5981    0.0000 O   0  0  0  0  0  0  0  0  0  0  0  0
   -6.0000   -2.5981    0.0000 C   0  0  0  0  0  0  0  0  0  0  0  0
   -5.2500   -1.2990    0.0000 C   0  0  0  0  0  0  0  0  0  0  0  0
   -6.0000    0.0000    0.0000 C   0  0  0  0  0  0  0  0  0  0  0  0
   -3.7500   -1.2990    0.0000 C   0  0  0  0  0  0  0  0  0  0  0  0
   -3.0000   -2.5981    0.0000 C   0  0  0  0  0  0  0  0  0  0  0  0
   -3.7500   -3.8971    0.0000 C   0  0  0  0  0  0  0  0  0  0  0  0
   -3.0000   -5.1962    0.0000 N   0  0  0  0  0  0  0  0  0  0  0  0
   -1.5000   -5.1962    0.0000 C   0  0  0  0  0  0  0  0  0  0  0  0
   -0.7500   -6.4952    0.0000 N   0  0  0  0  0  0  0  0  0  0  0  0
    0.7500   -6.4952    0.0000 C   0  0  0  0  0  0  0  0  0  0  0  0
    1.5000   -5.1962    0.0000 C   0  0  0  0  0  0  0  0  0  0  0  0
    3.0000   -5.1962    0.0000 F   0  0  0  0  0  0  0  0  0  0  0  0
    0.7500   -3.8971    0.0000 C   0  0  0  0  0  0  0  0  0  0  0  0
    1.5000   -2.5981    0.0000 N   0  0  0  0  0  0  0  0  0  0  0  0
    0.7500   -1.2990    0.0000 C   0  0  0  0  0  0  0  0  0  0  0  0
    1.5000    0.0000    0.0000 C   0  0  0  0  0  0  0  0  0  0  0  0
    0.7500    1.2990    0.0000 C   0  0  0  0  0  0  0  0  0  0  0  0
   -0.7500    1.2990    0.0000 C   0  0  0  0  0  0  0  0  0  0  0  0
   -1.5000    0.0000    0.0000 C   0  0  0  0  0  0  0  0  0  0  0  0
   -0.7500   -1.2990    0.0000 N   0  0  0  0  0  0  0  0  0  0  0  0
   -3.0000    0.0000    0.0000 N   0  0  0  0  0  0  0  0  0  0  0  0
   -3.7500    1.2990    0.0000 C   0  0  0  0  0  0  0  0  0  0  0  0
   -5.2500    1.2990    0.0000 O   0  0  0  0  0  0  0  0  0  0  0  0
   -3.0000    2.5981    0.0000 C   0  0  0  0  0  0  0  0  0  0  0  0
   -2.7395    4.0753    0.0000 C   0  0  0  0  0  0  0  0  0  0  0  0
   -4.4095    3.1111    0.0000 C   0  0  0  0  0  0  0  0  0  0  0  0
   -1.5000    2.5981    0.0000 O   0  0  0  0  0  0  0  0  0  0  0  0
   -0.7500   -3.8971    0.0000 N   0  0  0  0  0  0  0  0  0  0  0  0
   -5.2500   -3.8971    0.0000 C   0  0  0  0  0  0  0  0  0  0  0  0
  1  2  1  0
  2  3  1  0
  3  4  2  0
  3  5  1  0
  5  6  1  0
  6  7  1  0
  7  8  2  0
  8  9  1  0
  8 10  1  0
 10 11  1  0
 11 12  1  0
 12 13  1  0
 13 14  1  0
 14 15  2  0
 15 16  1  0
 16 17  2  0
 17 18  1  0
 17 19  1  0
 19 20  1  0
 20 21  1  0
 21 22  2  0
 22 23  1  0
 23 24  2  0
 24 25  1  0
 25 26  2  0
 25 27  1  0
 27 28  1  0
 28 29  2  0
 28 30  1  0
 30 31  1  0
 30 32  1  0
 30 33  1  0
 19 34  2  0
 12 35  2  0
 35  7  1  0
 34 14  1  0
 26 21  1  0
 33 24  1  0
M  END
>  <Compound_ID>  (167) 
CHEMBL3971397

>  <Molecule Name>  (167) 
nan

>  <Molecular Weight>  (167) 
483.5

>  <AlogP>  (167) 
2.99

>  <Smiles>  (167) 
CNC(=O)COC1=C(C)CCC(Nc2ncc(F)c(Nc3ccc4c(n3)NC(=O)C(C)(C)O4)n2)=C1

>  <Standard Type>  (167) 
IC50

>  <Standard Relation>  (167) 
'='

>  <Standard Units>  (167) 
nM

>  <Standard Value>  (167) 
34.5

>  <Assay ChEMBL ID>  (167) 
CHEMBL3889292

>  <Assay Description>  (167) 
Biochemical Assay: Several 2,4-pyrimidinediamine compounds were tested for the ability to inhibit Syk kinase catalyzed phosphorylation of a peptide substrate in a biochemical fluorescenced polarization assay with isolated Syk kinase. In this experiment, Compounds were diluted to 1% DMSO in kinase buffer (20 mM HEPES, pH 7.4, 5 mM MgCl2, 2 mM MnCl2, 1 mM DTT, 0.1 mg/mL acetylated Bovine Gamma Globulin). Compound in 1% DMSO (0.2% DMSO final) was mixed with ATP/substrate solution at room temperature. Syk kinase (Upstate, Lake Placid N.Y.) was added to a final reaction volume of 20 uL, and the reaction was incubated for 30 minutes at room temperature. Final enzyme reaction conditions were 20 mM HEPES, pH 7.4, 5 mM MgCl2, 2 mM MnCl2, 1 mM DTT, 0.1 mg/mL acetylated Bovine Gamma Globulin, 0.125 ng Syk, 4 uM ATP, 2.5 uM peptide substrate (biotin-EQEDEPEGDYEEVLE-CONH2, SynPep Corporation). EDTA (10 mM final)/anti-phosphotyrosine antibody (1x final)/fluorescent phosphopeptide tracer (0.5x final) was added in FP Dilution Buffer to stop the reaction for a total volume of 40 uL according to manufacturer's instructions (PanVera Corporation) The plate was incubated for 30 minutes in the dark at room temperature. Plates were read on a Polarion fluorescence polarization plate reader (Tecan). Data were converted to amount of phosphopeptide present using a calibration curve generated by competition with the phosphopeptide competitor provided in the Tyrosine Kinase Assay Kit, Green (PanVera Corporation).

>  <BAO Format ID>  (167) 
BAO_0000357

>  <BAO Label>  (167) 
single protein format

>  <Assay Organism>  (167) 
Homo sapiens

>  <Target ChEMBL ID>  (167) 
CHEMBL2599

>  <Target Name>  (167) 
Tyrosine-protein kinase SYK

>  <Target Organism>  (167) 
Homo sapiens

>  <Target Type>  (167) 
SINGLE PROTEIN

>  <Document ChEMBL ID>  (167) 
CHEMBL3887020

>  <Source Description>  (167) 
BindingDB Database

>  <Document Journal>  (167) 
nan

>  <Document Year>  (167) 
2016.0

>  <Active>  (167) 
1.0

>  <bits>  (167) 
<rdkit.DataStructs.cDataStructs.ExplicitBitVect object at 0x00000193F3407ED0>

>  <Group>  (167) 
G2

$$$$

     RDKit          2D

 31 34  0  0  0  0  0  0  0  0999 V2000
    3.1892   -9.1767    0.0000 N   0  0  0  0  0  0  0  0  0  0  0  0
    4.6158   -8.7132    0.0000 C   0  0  0  0  0  0  0  0  0  0  0  0
    5.7305   -9.7169    0.0000 O   0  0  0  0  0  0  0  0  0  0  0  0
    4.9277   -7.2460    0.0000 N   0  0  0  0  0  0  0  0  0  0  0  0
    6.2980   -6.6358    0.0000 C   0  0  0  0  0  0  0  0  0  0  0  0
    6.1412   -5.1441    0.0000 C   0  0  0  0  0  0  0  0  0  0  0  0
    4.6740   -4.8322    0.0000 C   0  0  0  0  0  0  0  0  0  0  0  0
    5.1375   -3.4056    0.0000 O   0  0  0  0  0  0  0  0  0  0  0  0
    3.3037   -4.2221    0.0000 C   0  0  0  0  0  0  0  0  0  0  0  0
    2.0046   -4.9721    0.0000 N   0  0  0  0  0  0  0  0  0  0  0  0
    0.8899   -3.9684    0.0000 C   0  0  0  0  0  0  0  0  0  0  0  0
    1.5000   -2.5981    0.0000 C   0  0  0  0  0  0  0  0  0  0  0  0
    0.7500   -1.2990    0.0000 C   0  0  0  0  0  0  0  0  0  0  0  0
    1.5000    0.0000    0.0000 C   0  0  0  0  0  0  0  0  0  0  0  0
    0.7500    1.2990    0.0000 C   0  0  0  0  0  0  0  0  0  0  0  0
   -0.7500    1.2990    0.0000 C   0  0  0  0  0  0  0  0  0  0  0  0
   -1.5000    0.0000    0.0000 C   0  0  0  0  0  0  0  0  0  0  0  0
   -3.0000    0.0000    0.0000 N   0  0  0  0  0  0  0  0  0  0  0  0
   -3.7500    1.2990    0.0000 C   0  0  0  0  0  0  0  0  0  0  0  0
   -3.0000    2.5981    0.0000 N   0  0  0  0  0  0  0  0  0  0  0  0
   -3.7500    3.8971    0.0000 C   0  0  0  0  0  0  0  0  0  0  0  0
   -5.2500    3.8971    0.0000 C   0  0  0  0  0  0  0  0  0  0  0  0
   -6.0000    2.5981    0.0000 C   0  0  0  0  0  0  0  0  0  0  0  0
   -7.5000    2.5981    0.0000 C   0  0  0  0  0  0  0  0  0  0  0  0
   -9.0000    2.5981    0.0000 F   0  0  0  0  0  0  0  0  0  0  0  0
   -7.5000    4.0981    0.0000 F   0  0  0  0  0  0  0  0  0  0  0  0
   -7.5000    1.0981    0.0000 F   0  0  0  0  0  0  0  0  0  0  0  0
   -5.2500    1.2990    0.0000 N   0  0  0  0  0  0  0  0  0  0  0  0
   -0.7500   -1.2990    0.0000 C   0  0  0  0  0  0  0  0  0  0  0  0
    2.9918   -2.7549    0.0000 S   0  0  0  0  0  0  0  0  0  0  0  0
    3.9240   -6.1312    0.0000 C   0  0  0  0  0  0  0  0  0  0  0  0
  1  2  1  0
  2  3  2  0
  2  4  1  0
  4  5  1  0
  5  6  1  0
  6  7  1  0
  7  8  1  0
  7  9  1  0
  9 10  2  0
 10 11  1  0
 11 12  2  0
 12 13  1  0
 13 14  2  0
 14 15  1  0
 15 16  2  0
 16 17  1  0
 17 18  1  0
 18 19  1  0
 19 20  2  0
 20 21  1  0
 21 22  2  0
 22 23  1  0
 23 24  1  0
 24 25  1  0
 24 26  1  0
 24 27  1  0
 23 28  2  0
 17 29  2  0
 12 30  1  0
  7 31  1  0
 31  4  1  0
 30  9  1  0
 29 13  1  0
 28 19  1  0
M  END
>  <Compound_ID>  (168) 
CHEMBL3685790

>  <Molecule Name>  (168) 
nan

>  <Molecular Weight>  (168) 
450.45

>  <AlogP>  (168) 
3.33

>  <Smiles>  (168) 
NC(=O)N1CCC(O)(c2ncc(-c3cccc(Nc4nccc(C(F)(F)F)n4)c3)s2)C1

>  <Standard Type>  (168) 
IC50

>  <Standard Relation>  (168) 
'='

>  <Standard Units>  (168) 
nM

>  <Standard Value>  (168) 
11.0

>  <Assay ChEMBL ID>  (168) 
CHEMBL3705225

>  <Assay Description>  (168) 
Homogeneous Time-Resolved Fluorescence (HTRF) Assay : A recombinant GST-hSYK fusion protein was used to measure potency of compounds to inhibit human SYK activity. The recombinant human GST-SYK (Carna Biosciences #08-176) (5 pM final concentration) was incubated with various concentrations of the inhibitor diluted in DMSO (0.1% final concentration) for 10 minutes at room temperature in 15 mM Tris-HCl (pH 7.5), 0.01% tween 20, 2 mM DTT in 384 well plate format. To initiate the reaction the biotinylated substrate peptide (250 nM final concentration) that contains the phosphorylation site for SYK was added with magnesium (5 mM final concentration) and ATP (25 μM final concentration). Final volume of the reaction was 10 μL. Phosphorylation of the peptide was allowed to proceed for 45′ at room temperature.

>  <BAO Format ID>  (168) 
BAO_0000357

>  <BAO Label>  (168) 
single protein format

>  <Assay Organism>  (168) 
Homo sapiens

>  <Target ChEMBL ID>  (168) 
CHEMBL2599

>  <Target Name>  (168) 
Tyrosine-protein kinase SYK

>  <Target Organism>  (168) 
Homo sapiens

>  <Target Type>  (168) 
SINGLE PROTEIN

>  <Document ChEMBL ID>  (168) 
CHEMBL3639355

>  <Source Description>  (168) 
BindingDB Database

>  <Document Journal>  (168) 
nan

>  <Document Year>  (168) 
2014.0

>  <Active>  (168) 
1.0

>  <bits>  (168) 
<rdkit.DataStructs.cDataStructs.ExplicitBitVect object at 0x00000193F3404510>

>  <Group>  (168) 
G2

$$$$

     RDKit          2D

 32 37  0  0  0  0  0  0  0  0999 V2000
   -2.9520   -4.6564    0.0000 C   0  0  0  0  0  0  0  0  0  0  0  0
   -2.6401   -3.1891    0.0000 C   0  0  0  0  0  0  0  0  0  0  0  0
   -1.2135   -2.7256    0.0000 N   0  0  0  0  0  0  0  0  0  0  0  0
   -0.0000   -3.6073    0.0000 C   0  0  0  0  0  0  0  0  0  0  0  0
    1.2135   -2.7256    0.0000 C   0  0  0  0  0  0  0  0  0  0  0  0
    0.7500   -1.2990    0.0000 C   0  0  0  0  0  0  0  0  0  0  0  0
    1.5000    0.0000    0.0000 C   0  0  0  0  0  0  0  0  0  0  0  0
    0.7500    1.2990    0.0000 C   0  0  0  0  0  0  0  0  0  0  0  0
    1.5000    2.5981    0.0000 N   0  0  0  0  0  0  0  0  0  0  0  0
    3.0000    2.5981    0.0000 C   0  0  0  0  0  0  0  0  0  0  0  0
    3.7500    1.2990    0.0000 N   0  0  0  0  0  0  0  0  0  0  0  0
    5.2500    1.2990    0.0000 C   0  0  0  0  0  0  0  0  0  0  0  0
    6.0000    2.5981    0.0000 C   0  0  0  0  0  0  0  0  0  0  0  0
    5.2500    3.8971    0.0000 C   0  0  0  0  0  0  0  0  0  0  0  0
    6.0000    5.1962    0.0000 N   0  0  0  0  0  0  0  0  0  0  0  0
    5.3899    6.5665    0.0000 C   0  0  0  0  0  0  0  0  0  0  0  0
    6.5046    7.5702    0.0000 C   0  0  0  0  0  0  0  0  0  0  0  0
    6.3478    9.0619    0.0000 C   0  0  0  0  0  0  0  0  0  0  0  0
    7.5613    9.9436    0.0000 N   0  0  0  0  0  0  0  0  0  0  0  0
    9.0429    9.7090    0.0000 C   0  0  0  0  0  0  0  0  0  0  0  0
    9.2775   11.1905    0.0000 C   0  0  0  0  0  0  0  0  0  0  0  0
   10.4911   12.0722    0.0000 O   0  0  0  0  0  0  0  0  0  0  0  0
    7.7960   11.4252    0.0000 C   0  0  0  0  0  0  0  0  0  0  0  0
    7.8037    6.8202    0.0000 C   0  0  0  0  0  0  0  0  0  0  0  0
    9.1740    7.4303    0.0000 C   0  0  0  0  0  0  0  0  0  0  0  0
   10.0556    8.6438    0.0000 C   0  0  0  0  0  0  0  0  0  0  0  0
   10.6658    7.2735    0.0000 C   0  0  0  0  0  0  0  0  0  0  0  0
    7.4918    5.3529    0.0000 N   0  0  0  0  0  0  0  0  0  0  0  0
    3.7500    3.8971    0.0000 N   0  0  0  0  0  0  0  0  0  0  0  0
   -0.7500    1.2990    0.0000 C   0  0  0  0  0  0  0  0  0  0  0  0
   -1.5000    0.0000    0.0000 C   0  0  0  0  0  0  0  0  0  0  0  0
   -0.7500   -1.2990    0.0000 C   0  0  0  0  0  0  0  0  0  0  0  0
  1  2  1  0
  2  3  1  0
  3  4  1  0
  4  5  2  0
  5  6  1  0
  6  7  2  0
  7  8  1  0
  8  9  1  0
  9 10  1  0
 10 11  2  0
 11 12  1  0
 12 13  2  0
 13 14  1  0
 14 15  1  0
 15 16  1  0
 16 17  2  0
 17 18  1  0
 18 19  1  0
 19 20  1  0
 20 21  1  0
 21 22  1  0
 21 23  1  0
 17 24  1  0
 24 25  1  0
 25 26  1  0
 26 27  1  0
 24 28  2  0
 14 29  2  0
  8 30  2  0
 30 31  1  0
 31 32  2  0
 32  3  1  0
 32  6  1  0
 29 10  1  0
 28 15  1  0
 23 19  1  0
 27 25  1  0
M  END
>  <Compound_ID>  (169) 
CHEMBL3622953

>  <Molecule Name>  (169) 
nan

>  <Molecular Weight>  (169) 
429.53

>  <AlogP>  (169) 
3.43

>  <Smiles>  (169) 
CCn1ccc2cc(Nc3nccc(-n4cc(CN5CC(O)C5)c(C5CC5)n4)n3)ccc21

>  <Standard Type>  (169) 
IC50

>  <Standard Relation>  (169) 
'='

>  <Standard Units>  (169) 
nM

>  <Standard Value>  (169) 
9.2

>  <Assay ChEMBL ID>  (169) 
CHEMBL3627015

>  <Assay Description>  (169) 
Inhibition of purified full-length human SYK pre-incubated for 30 mins at room temperature before Ulight-TK peptide substrate addition and measured 1 hr after substrate addition by cell free kinase assay

>  <BAO Format ID>  (169) 
BAO_0000357

>  <BAO Label>  (169) 
single protein format

>  <Assay Organism>  (169) 
Homo sapiens

>  <Target ChEMBL ID>  (169) 
CHEMBL2599

>  <Target Name>  (169) 
Tyrosine-protein kinase SYK

>  <Target Organism>  (169) 
Homo sapiens

>  <Target Type>  (169) 
SINGLE PROTEIN

>  <Document ChEMBL ID>  (169) 
CHEMBL3621069

>  <Source Description>  (169) 
Scientific Literature

>  <Document Journal>  (169) 
Bioorg Med Chem Lett

>  <Document Year>  (169) 
2015.0

>  <Active>  (169) 
1.0

>  <bits>  (169) 
<rdkit.DataStructs.cDataStructs.ExplicitBitVect object at 0x00000193F34053F0>

>  <Group>  (169) 
G2

$$$$

     RDKit          2D

 37 41  0  0  0  0  0  0  0  0999 V2000
   -7.7206    6.7722    0.0000 C   0  0  0  0  0  0  0  0  0  0  0  0
   -8.0325    5.3050    0.0000 O   0  0  0  0  0  0  0  0  0  0  0  0
   -6.9177    4.3013    0.0000 C   0  0  0  0  0  0  0  0  0  0  0  0
   -5.4912    4.7648    0.0000 C   0  0  0  0  0  0  0  0  0  0  0  0
   -4.3764    3.7611    0.0000 C   0  0  0  0  0  0  0  0  0  0  0  0
   -4.6883    2.2939    0.0000 C   0  0  0  0  0  0  0  0  0  0  0  0
   -3.5736    1.2902    0.0000 N   0  0  0  0  0  0  0  0  0  0  0  0
   -2.1470    1.7537    0.0000 C   0  0  0  0  0  0  0  0  0  0  0  0
   -1.8351    3.2209    0.0000 N   0  0  0  0  0  0  0  0  0  0  0  0
   -0.4086    3.6844    0.0000 C   0  0  0  0  0  0  0  0  0  0  0  0
   -0.0967    5.1517    0.0000 N   0  0  0  0  0  0  0  0  0  0  0  0
   -1.1004    6.2664    0.0000 C   0  0  0  0  0  0  0  0  0  0  0  0
   -0.3504    7.5654    0.0000 C   0  0  0  0  0  0  0  0  0  0  0  0
    1.1168    7.2536    0.0000 C   0  0  0  0  0  0  0  0  0  0  0  0
    2.2316    8.2572    0.0000 N   0  0  0  0  0  0  0  0  0  0  0  0
    3.6581    7.7937    0.0000 C   0  0  0  0  0  0  0  0  0  0  0  0
    3.9700    6.3265    0.0000 O   0  0  0  0  0  0  0  0  0  0  0  0
    4.7729    8.7974    0.0000 C   0  0  0  0  0  0  0  0  0  0  0  0
    6.1994    8.3339    0.0000 C   0  0  0  0  0  0  0  0  0  0  0  0
    7.3142    9.3376    0.0000 C   0  0  0  0  0  0  0  0  0  0  0  0
    7.0023   10.8048    0.0000 C   0  0  0  0  0  0  0  0  0  0  0  0
    8.1170   11.8085    0.0000 C   0  0  0  0  0  0  0  0  0  0  0  0
    7.8051   13.2757    0.0000 O   0  0  0  0  0  0  0  0  0  0  0  0
    9.5436   11.3450    0.0000 O   0  0  0  0  0  0  0  0  0  0  0  0
    5.5757   11.2683    0.0000 C   0  0  0  0  0  0  0  0  0  0  0  0
    4.4610   10.2646    0.0000 C   0  0  0  0  0  0  0  0  0  0  0  0
    1.2736    5.7618    0.0000 C   0  0  0  0  0  0  0  0  0  0  0  0
    0.7062    2.6807    0.0000 N   0  0  0  0  0  0  0  0  0  0  0  0
    0.3943    1.2135    0.0000 C   0  0  0  0  0  0  0  0  0  0  0  0
    1.2760    0.0000    0.0000 S   0  0  0  0  0  0  0  0  0  0  0  0
    0.3943   -1.2135    0.0000 C   0  0  0  0  0  0  0  0  0  0  0  0
   -1.0323   -0.7500    0.0000 N   0  0  0  0  0  0  0  0  0  0  0  0
   -1.0323    0.7500    0.0000 C   0  0  0  0  0  0  0  0  0  0  0  0
   -6.1149    1.8303    0.0000 C   0  0  0  0  0  0  0  0  0  0  0  0
   -7.2296    2.8340    0.0000 C   0  0  0  0  0  0  0  0  0  0  0  0
   -8.6562    2.3705    0.0000 O   0  0  0  0  0  0  0  0  0  0  0  0
   -8.9681    0.9033    0.0000 C   0  0  0  0  0  0  0  0  0  0  0  0
  1  2  1  0
  2  3  1  0
  3  4  2  0
  4  5  1  0
  5  6  2  0
  6  7  1  0
  7  8  1  0
  8  9  2  0
  9 10  1  0
 10 11  1  0
 11 12  1  0
 12 13  1  0
 13 14  1  0
 14 15  1  6
 15 16  1  0
 16 17  2  0
 16 18  1  0
 18 19  2  0
 19 20  1  0
 20 21  2  0
 21 22  1  0
 22 23  2  0
 22 24  1  0
 21 25  1  0
 25 26  2  0
 14 27  1  0
 10 28  2  0
 28 29  1  0
 29 30  1  0
 30 31  1  0
 31 32  2  0
 32 33  1  0
  6 34  1  0
 34 35  2  0
 35 36  1  0
 36 37  1  0
 35  3  1  0
 33  8  1  0
 27 11  1  0
 33 29  2  0
 26 18  1  0
M  END
>  <Compound_ID>  (170) 
CHEMBL4104392

>  <Molecule Name>  (170) 
nan

>  <Molecular Weight>  (170) 
520.57

>  <AlogP>  (170) 
3.55

>  <Smiles>  (170) 
COc1ccc(Nc2nc(N3CC[C@H](NC(=O)c4ccc(C(=O)O)cc4)C3)nc3scnc23)cc1OC

>  <Standard Type>  (170) 
IC50

>  <Standard Relation>  (170) 
'='

>  <Standard Units>  (170) 
nM

>  <Standard Value>  (170) 
47.0

>  <Assay ChEMBL ID>  (170) 
CHEMBL4010460

>  <Assay Description>  (170) 
Inhibition of SYK (unknown origin) using FAM-labeled peptide as substrate preincubated for 10 mins followed by substrate addition measured after 25 mins

>  <BAO Format ID>  (170) 
BAO_0000357

>  <BAO Label>  (170) 
single protein format

>  <Assay Organism>  (170) 
Homo sapiens

>  <Target ChEMBL ID>  (170) 
CHEMBL2599

>  <Target Name>  (170) 
Tyrosine-protein kinase SYK

>  <Target Organism>  (170) 
Homo sapiens

>  <Target Type>  (170) 
SINGLE PROTEIN

>  <Document ChEMBL ID>  (170) 
CHEMBL4007463

>  <Source Description>  (170) 
Scientific Literature

>  <Document Journal>  (170) 
Bioorg Med Chem Lett

>  <Document Year>  (170) 
2017.0

>  <Active>  (170) 
1.0

>  <bits>  (170) 
<rdkit.DataStructs.cDataStructs.ExplicitBitVect object at 0x00000193F34057E0>

>  <Group>  (170) 
G2

$$$$

     RDKit          2D

 28 32  0  0  0  0  0  0  0  0999 V2000
   -3.5736    1.2902    0.0000 C   0  0  0  0  0  0  0  0  0  0  0  0
   -2.1470    1.7537    0.0000 C   0  0  0  0  0  0  0  0  0  0  0  0
   -1.8351    3.2209    0.0000 C   0  0  0  0  0  0  0  0  0  0  0  0
   -0.4086    3.6844    0.0000 C   0  0  0  0  0  0  0  0  0  0  0  0
   -0.0967    5.1517    0.0000 N   0  0  0  0  0  0  0  0  0  0  0  0
    1.3299    5.6152    0.0000 C   0  0  0  0  0  0  0  0  0  0  0  0
    2.4446    4.6115    0.0000 N   0  0  0  0  0  0  0  0  0  0  0  0
    3.8712    5.0750    0.0000 C   0  0  0  0  0  0  0  0  0  0  0  0
    4.1831    6.5422    0.0000 C   0  0  0  0  0  0  0  0  0  0  0  0
    3.0684    7.5459    0.0000 C   0  0  0  0  0  0  0  0  0  0  0  0
    3.3802    9.0132    0.0000 C   0  0  0  0  0  0  0  0  0  0  0  0
    2.3765   10.1279    0.0000 C   0  0  0  0  0  0  0  0  0  0  0  0
    3.1265   11.4269    0.0000 N   0  0  0  0  0  0  0  0  0  0  0  0
    2.5164   12.7972    0.0000 C   0  0  0  0  0  0  0  0  0  0  0  0
    4.5937   11.1150    0.0000 C   0  0  0  0  0  0  0  0  0  0  0  0
    4.7505    9.6233    0.0000 N   0  0  0  0  0  0  0  0  0  0  0  0
    1.6418    7.0824    0.0000 N   0  0  0  0  0  0  0  0  0  0  0  0
    0.7062    2.6807    0.0000 C   0  0  0  0  0  0  0  0  0  0  0  0
    0.3943    1.2135    0.0000 C   0  0  0  0  0  0  0  0  0  0  0  0
    1.2760    0.0000    0.0000 C   0  0  0  0  0  0  0  0  0  0  0  0
    0.3943   -1.2135    0.0000 C   0  0  0  0  0  0  0  0  0  0  0  0
    0.8578   -2.6401    0.0000 C   0  0  0  0  0  0  0  0  0  0  0  0
    2.2844   -3.1036    0.0000 N   0  0  0  0  0  0  0  0  0  0  0  0
    2.2844   -4.6036    0.0000 N   0  0  0  0  0  0  0  0  0  0  0  0
    0.8578   -5.0672    0.0000 C   0  0  0  0  0  0  0  0  0  0  0  0
   -0.0239   -3.8536    0.0000 O   0  0  0  0  0  0  0  0  0  0  0  0
   -1.0323   -0.7500    0.0000 N   0  0  0  0  0  0  0  0  0  0  0  0
   -1.0323    0.7500    0.0000 C   0  0  0  0  0  0  0  0  0  0  0  0
  1  2  1  0
  2  3  2  0
  3  4  1  0
  4  5  1  0
  5  6  1  0
  6  7  2  0
  7  8  1  0
  8  9  2  0
  9 10  1  0
 10 11  1  0
 11 12  2  0
 12 13  1  0
 13 14  1  0
 13 15  1  0
 15 16  2  0
 10 17  2  0
  4 18  2  0
 18 19  1  0
 19 20  1  0
 20 21  2  0
 21 22  1  0
 22 23  2  0
 23 24  1  0
 24 25  2  0
 25 26  1  0
 21 27  1  0
 27 28  1  0
 28  2  1  0
 17  6  1  0
 28 19  2  0
 16 11  1  0
 26 22  1  0
M  END
>  <Compound_ID>  (171) 
CHEMBL3668883

>  <Molecule Name>  (171) 
nan

>  <Molecular Weight>  (171) 
372.39

>  <AlogP>  (171) 
3.46

>  <Smiles>  (171) 
Cc1cc(Nc2nccc(-c3cn(C)cn3)n2)cc2cc(-c3nnco3)[nH]c12

>  <Standard Type>  (171) 
IC50

>  <Standard Relation>  (171) 
'='

>  <Standard Units>  (171) 
nM

>  <Standard Value>  (171) 
0.5

>  <Assay ChEMBL ID>  (171) 
CHEMBL3706039

>  <Assay Description>  (171) 
In Vitro Kinase Assay: Recombinant human Syk (amino acids 342-635) was expressed as a fusion protein with an N-terminal GST tag, affinity-purified and deep-frozen at a concentration of approx. 50-100 uM in test buffer (25 mM HEPES pH7.5; 25 mM MgCl2; 5 mM MnCl2; 50 mM KCl; 0.2% HSA; 0.01% CHAPS; 100 uM Na3VO4; 0.5 mM DTT) and 10% glycerol at -80 C. until use.The catalytic activity of the GST-Syk kinase fusion protein was determined using the Kinase Glo Luminescence Kinase test (Promega; V6712). In this homogeneous test the amount of ATP remaining after the kinase reaction is quantified by a luciferin-luciferase reaction using luminescence. The luminescence signal obtained correlates with the amount of ATP still present and thus correlates inversely with the activity of the protein kinase. Method:The test compounds were dissolved in 100% DMSO at a concentration of 10 mM and diluted in DMSO to a concentration of 1 mM. All further dilutions of the substances were carried out with 7.5% DMSO.

>  <BAO Format ID>  (171) 
BAO_0000357

>  <BAO Label>  (171) 
single protein format

>  <Assay Organism>  (171) 
Homo sapiens

>  <Target ChEMBL ID>  (171) 
CHEMBL2599

>  <Target Name>  (171) 
Tyrosine-protein kinase SYK

>  <Target Organism>  (171) 
Homo sapiens

>  <Target Type>  (171) 
SINGLE PROTEIN

>  <Document ChEMBL ID>  (171) 
CHEMBL3638603

>  <Source Description>  (171) 
BindingDB Database

>  <Document Journal>  (171) 
nan

>  <Document Year>  (171) 
2015.0

>  <Active>  (171) 
1.0

>  <bits>  (171) 
<rdkit.DataStructs.cDataStructs.ExplicitBitVect object at 0x00000193F3406F10>

>  <Group>  (171) 
G2

$$$$

     RDKit          2D

 34 37  0  0  0  0  0  0  0  0999 V2000
   -0.7668   14.4952    0.0000 C   0  0  0  0  0  0  0  0  0  0  0  0
   -1.0786   13.0279    0.0000 O   0  0  0  0  0  0  0  0  0  0  0  0
   -2.5052   12.5644    0.0000 C   0  0  0  0  0  0  0  0  0  0  0  0
   -2.8171   11.0972    0.0000 C   0  0  0  0  0  0  0  0  0  0  0  0
   -1.7024   10.0935    0.0000 N   0  0  0  0  0  0  0  0  0  0  0  0
   -4.2437   10.6337    0.0000 C   0  0  0  0  0  0  0  0  0  0  0  0
   -5.3584   11.6374    0.0000 C   0  0  0  0  0  0  0  0  0  0  0  0
   -4.5556    9.1664    0.0000 N   0  0  0  0  0  0  0  0  0  0  0  0
   -3.4408    8.1628    0.0000 C   0  0  0  0  0  0  0  0  0  0  0  0
   -2.0143    8.6263    0.0000 N   0  0  0  0  0  0  0  0  0  0  0  0
   -0.8995    7.6226    0.0000 N   0  0  0  0  0  0  0  0  0  0  0  0
   -1.2114    6.1554    0.0000 C   0  0  0  0  0  0  0  0  0  0  0  0
   -0.0967    5.1517    0.0000 C   0  0  0  0  0  0  0  0  0  0  0  0
    1.3299    5.6152    0.0000 N   0  0  0  0  0  0  0  0  0  0  0  0
   -0.4086    3.6844    0.0000 O   0  0  0  0  0  0  0  0  0  0  0  0
   -2.6380    5.6918    0.0000 C   0  0  0  0  0  0  0  0  0  0  0  0
   -2.9499    4.2246    0.0000 N   0  0  0  0  0  0  0  0  0  0  0  0
   -4.3764    3.7611    0.0000 C   0  0  0  0  0  0  0  0  0  0  0  0
   -4.6883    2.2939    0.0000 C   0  0  0  0  0  0  0  0  0  0  0  0
   -6.1149    1.8303    0.0000 C   0  0  0  0  0  0  0  0  0  0  0  0
   -6.4268    0.3631    0.0000 C   0  0  0  0  0  0  0  0  0  0  0  0
   -7.8533   -0.1004    0.0000 C   0  0  0  0  0  0  0  0  0  0  0  0
   -8.1652   -1.5676    0.0000 C   0  0  0  0  0  0  0  0  0  0  0  0
   -7.0505   -2.5713    0.0000 C   0  0  0  0  0  0  0  0  0  0  0  0
   -5.6239   -2.1078    0.0000 C   0  0  0  0  0  0  0  0  0  0  0  0
   -5.3120   -0.6406    0.0000 C   0  0  0  0  0  0  0  0  0  0  0  0
   -7.2296    2.8340    0.0000 C   0  0  0  0  0  0  0  0  0  0  0  0
   -8.7214    2.6772    0.0000 N   0  0  0  0  0  0  0  0  0  0  0  0
   -9.3315    4.0476    0.0000 N   0  0  0  0  0  0  0  0  0  0  0  0
  -10.7987    4.3594    0.0000 C   0  0  0  0  0  0  0  0  0  0  0  0
   -8.2168    5.0513    0.0000 C   0  0  0  0  0  0  0  0  0  0  0  0
   -6.9177    4.3013    0.0000 C   0  0  0  0  0  0  0  0  0  0  0  0
   -5.4912    4.7648    0.0000 C   0  0  0  0  0  0  0  0  0  0  0  0
   -3.7527    6.6955    0.0000 N   0  0  0  0  0  0  0  0  0  0  0  0
  1  2  1  0
  2  3  1  0
  3  4  1  0
  4  5  1  6
  4  6  1  0
  6  7  1  6
  6  8  1  0
  8  9  1  0
  9 10  2  0
 10 11  1  0
 11 12  2  0
 12 13  1  0
 13 14  1  0
 13 15  2  0
 12 16  1  0
 16 17  1  0
 17 18  1  0
 18 19  1  0
 19 20  2  0
 20 21  1  0
 21 22  2  0
 22 23  1  0
 23 24  2  0
 24 25  1  0
 25 26  2  0
 20 27  1  0
 27 28  2  0
 28 29  1  0
 29 30  1  0
 29 31  1  0
 31 32  2  0
 32 33  1  0
 16 34  2  0
 34  9  1  0
 33 18  2  0
 26 21  1  0
 32 27  1  0
M  END
>  <Compound_ID>  (172) 
CHEMBL4109655

>  <Molecule Name>  (172) 
nan

>  <Molecular Weight>  (172) 
461.53

>  <AlogP>  (172) 
2.04

>  <Smiles>  (172) 
COC[C@H](N)[C@@H](C)Nc1nnc(C(N)=O)c(Nc2cc(-c3ccccc3)c3nn(C)cc3c2)n1

>  <Standard Type>  (172) 
IC50

>  <Standard Relation>  (172) 
'='

>  <Standard Units>  (172) 
nM

>  <Standard Value>  (172) 
0.29

>  <Assay ChEMBL ID>  (172) 
CHEMBL3887308

>  <Assay Description>  (172) 
Syk Kinase Inhibition Assay: The in vitro inhibitory activity of the compound of the present invention against Syk kinase activity was assayed under the following conditions: the purified human Syk protein used in the test were purchased from Carna Biosciences, Inc. For the inhibitory activity assay on the compound, the compound of the present invention was first serially diluted with dimethyl sulfoxide (DMSO). Next, the purified human Syk protein FL-Peptide 22 (final concentration: 1 uM) (Caliper Life Sciences, Inc.), magnesium chloride (final concentration: 5 mM), ATP (final concentration: 30 uM), and each DMSO solution of the compound of the present invention (final concentration of DMSO: 5%) were added into a buffer solution for reaction (20 mM tris-HCl pH 7.5, 20 mM NaCl, 2.5 mM DTT, 0.02% Tween-20, 1% glycerol, 0.01 mM Pefabloc), and the mixture was then incubated at 25° C. for 30 minutes to perform kinase reaction. The kinase reaction was stopped by the addition thereto of EDTA.

>  <BAO Format ID>  (172) 
BAO_0000357

>  <BAO Label>  (172) 
single protein format

>  <Assay Organism>  (172) 
Homo sapiens

>  <Target ChEMBL ID>  (172) 
CHEMBL2599

>  <Target Name>  (172) 
Tyrosine-protein kinase SYK

>  <Target Organism>  (172) 
Homo sapiens

>  <Target Type>  (172) 
SINGLE PROTEIN

>  <Document ChEMBL ID>  (172) 
CHEMBL3886160

>  <Source Description>  (172) 
BindingDB Database

>  <Document Journal>  (172) 
nan

>  <Document Year>  (172) 
2015.0

>  <Active>  (172) 
1.0

>  <bits>  (172) 
<rdkit.DataStructs.cDataStructs.ExplicitBitVect object at 0x00000193F3405930>

>  <Group>  (172) 
G2

$$$$

     RDKit          2D

 33 37  0  0  0  0  0  0  0  0999 V2000
   -0.7500   -9.0933    0.0000 C   0  0  0  0  0  0  0  0  0  0  0  0
    0.7500   -9.0933    0.0000 O   0  0  0  0  0  0  0  0  0  0  0  0
    1.5000   -7.7942    0.0000 C   0  0  0  0  0  0  0  0  0  0  0  0
    0.7500   -6.4952    0.0000 C   0  0  0  0  0  0  0  0  0  0  0  0
    1.5000   -5.1962    0.0000 C   0  0  0  0  0  0  0  0  0  0  0  0
    0.7500   -3.8971    0.0000 C   0  0  0  0  0  0  0  0  0  0  0  0
    1.5000   -2.5981    0.0000 C   0  0  0  0  0  0  0  0  0  0  0  0
    0.7500   -1.2990    0.0000 C   0  0  0  0  0  0  0  0  0  0  0  0
    1.5000    0.0000    0.0000 N   0  0  0  0  0  0  0  0  0  0  0  0
    0.7500    1.2990    0.0000 C   0  0  0  0  0  0  0  0  0  0  0  0
   -0.7500    1.2990    0.0000 C   0  0  0  0  0  0  0  0  0  0  0  0
   -1.5000    0.0000    0.0000 C   0  0  0  0  0  0  0  0  0  0  0  0
   -0.7500   -1.2990    0.0000 C   0  0  0  0  0  0  0  0  0  0  0  0
   -1.5000   -2.5981    0.0000 C   0  0  0  0  0  0  0  0  0  0  0  0
   -3.0000   -2.5981    0.0000 N   0  0  0  0  0  0  0  0  0  0  0  0
   -3.7500   -3.8971    0.0000 C   0  0  0  0  0  0  0  0  0  0  0  0
   -5.2500   -3.8971    0.0000 C   0  0  0  0  0  0  0  0  0  0  0  0
   -6.1317   -5.1106    0.0000 C   0  0  0  0  0  0  0  0  0  0  0  0
   -7.5583   -4.6471    0.0000 C   0  0  0  0  0  0  0  0  0  0  0  0
   -8.7718   -5.5288    0.0000 O   0  0  0  0  0  0  0  0  0  0  0  0
   -7.5583   -3.1471    0.0000 N   0  0  0  0  0  0  0  0  0  0  0  0
   -6.1317   -2.6836    0.0000 O   0  0  0  0  0  0  0  0  0  0  0  0
   -0.7500   -3.8971    0.0000 N   0  0  0  0  0  0  0  0  0  0  0  0
    3.0000   -5.1962    0.0000 C   0  0  0  0  0  0  0  0  0  0  0  0
    3.7500   -6.4952    0.0000 C   0  0  0  0  0  0  0  0  0  0  0  0
    3.0000   -7.7942    0.0000 C   0  0  0  0  0  0  0  0  0  0  0  0
    3.7500   -9.0933    0.0000 O   0  0  0  0  0  0  0  0  0  0  0  0
    5.2500   -9.0933    0.0000 C   0  0  0  0  0  0  0  0  0  0  0  0
    6.0000  -10.3923    0.0000 C   0  0  0  0  0  0  0  0  0  0  0  0
    7.5000  -10.3923    0.0000 C   0  0  0  0  0  0  0  0  0  0  0  0
    8.2500   -9.0933    0.0000 O   0  0  0  0  0  0  0  0  0  0  0  0
    7.5000   -7.7942    0.0000 C   0  0  0  0  0  0  0  0  0  0  0  0
    6.0000   -7.7942    0.0000 C   0  0  0  0  0  0  0  0  0  0  0  0
  1  2  1  0
  2  3  1  0
  3  4  2  0
  4  5  1  0
  5  6  1  0
  6  7  2  0
  7  8  1  0
  8  9  2  0
  9 10  1  0
 10 11  2  0
 11 12  1  0
 12 13  2  0
 13 14  1  0
 14 15  1  0
 15 16  1  0
 16 17  1  0
 17 18  2  0
 18 19  1  0
 19 20  2  0
 19 21  1  0
 21 22  1  0
 14 23  2  0
  5 24  2  0
 24 25  1  0
 25 26  2  0
 26 27  1  0
 27 28  1  0
 28 29  1  0
 29 30  1  0
 30 31  1  0
 31 32  1  0
 32 33  1  0
 26  3  1  0
 33 28  1  0
 23  6  1  0
 13  8  1  0
 22 17  1  0
M  END
>  <Compound_ID>  (173) 
CHEMBL3696001

>  <Molecule Name>  (173) 
nan

>  <Molecular Weight>  (173) 
448.48

>  <AlogP>  (173) 
3.76

>  <Smiles>  (173) 
COc1cc(-c2cc3ncccc3c(NCc3cc(=O)[nH]o3)n2)ccc1OC1CCOCC1

>  <Standard Type>  (173) 
IC50

>  <Standard Relation>  (173) 
'='

>  <Standard Units>  (173) 
nM

>  <Standard Value>  (173) 
78.2

>  <Assay ChEMBL ID>  (173) 
CHEMBL3705989

>  <Assay Description>  (173) 
Kinase Glo Luminescence Kinase Assay: Recombinant human Syk (amino acids 342-635) was expressed as a fusion protein with an N-terminal GST tag, affinity-purified and deep-frozen at a concentration of approx. 50 - 100 uM in test buffer (25 mM HEPES pH7.5; 25 mM MgCI2;5 mM MnCI2; 50 mM KCI; 0.2% BSA; 0.01 % CHAPS; 100 uM Na3V04; 0.5 mM DTT) and 10% glycerol at -80 C until use.The catalytic activity of the GST-Syk kinase fusion protein was determined using the Kinase Glo Luminescence Kinase test (Promega; V6712). In this homogeneous test the amount of ATP remaining after the kinase reaction is quantified by a luciferin-luciferase reaction using luminescence. The luminescence signal obtained correlates with the amount of ATP still present and thus correlates inversely with the activity of the protein kinase. Method:The test compounds were dissolved in 100 % DMSO at a concentration of 10 mM and diluted in DMSO to a concentration of 1 mM.

>  <BAO Format ID>  (173) 
BAO_0000357

>  <BAO Label>  (173) 
single protein format

>  <Assay Organism>  (173) 
Homo sapiens

>  <Target ChEMBL ID>  (173) 
CHEMBL2599

>  <Target Name>  (173) 
Tyrosine-protein kinase SYK

>  <Target Organism>  (173) 
Homo sapiens

>  <Target Type>  (173) 
SINGLE PROTEIN

>  <Document ChEMBL ID>  (173) 
CHEMBL3639308

>  <Source Description>  (173) 
BindingDB Database

>  <Document Journal>  (173) 
nan

>  <Document Year>  (173) 
2015.0

>  <Active>  (173) 
1.0

>  <bits>  (173) 
<rdkit.DataStructs.cDataStructs.ExplicitBitVect object at 0x00000193F3404CF0>

>  <Group>  (173) 
G2

$$$$

     RDKit          2D

 32 35  0  0  0  0  0  0  0  0999 V2000
   -4.3786   -5.1199    0.0000 C   0  0  0  0  0  0  0  0  0  0  0  0
   -2.9520   -4.6564    0.0000 O   0  0  0  0  0  0  0  0  0  0  0  0
   -2.6401   -3.1891    0.0000 C   0  0  0  0  0  0  0  0  0  0  0  0
   -3.7548   -2.1855    0.0000 O   0  0  0  0  0  0  0  0  0  0  0  0
   -1.2135   -2.7256    0.0000 C   0  0  0  0  0  0  0  0  0  0  0  0
   -0.0000   -3.6073    0.0000 N   0  0  0  0  0  0  0  0  0  0  0  0
    1.2135   -2.7256    0.0000 N   0  0  0  0  0  0  0  0  0  0  0  0
    2.6401   -3.1891    0.0000 C   0  0  0  0  0  0  0  0  0  0  0  0
    0.7500   -1.2990    0.0000 C   0  0  0  0  0  0  0  0  0  0  0  0
    1.5000    0.0000    0.0000 C   0  0  0  0  0  0  0  0  0  0  0  0
    3.0000    0.0000    0.0000 C   0  0  0  0  0  0  0  0  0  0  0  0
    0.7500    1.2990    0.0000 C   0  0  0  0  0  0  0  0  0  0  0  0
   -0.7500    1.2990    0.0000 C   0  0  0  0  0  0  0  0  0  0  0  0
   -1.5000    2.5981    0.0000 N   0  0  0  0  0  0  0  0  0  0  0  0
   -0.7500    3.8971    0.0000 C   0  0  0  0  0  0  0  0  0  0  0  0
    0.7500    3.8971    0.0000 N   0  0  0  0  0  0  0  0  0  0  0  0
    1.5000    5.1962    0.0000 C   0  0  0  0  0  0  0  0  0  0  0  0
    0.7500    6.4952    0.0000 C   0  0  0  0  0  0  0  0  0  0  0  0
   -0.7500    6.4952    0.0000 C   0  0  0  0  0  0  0  0  0  0  0  0
   -1.5000    7.7942    0.0000 C   0  0  0  0  0  0  0  0  0  0  0  0
   -2.9918    7.9510    0.0000 C   0  0  0  0  0  0  0  0  0  0  0  0
   -3.3037    9.4182    0.0000 C   0  0  0  0  0  0  0  0  0  0  0  0
   -4.6740   10.0283    0.0000 C   0  0  0  0  0  0  0  0  0  0  0  0
   -4.8308   11.5201    0.0000 N   0  0  0  0  0  0  0  0  0  0  0  0
   -6.2011   12.1302    0.0000 C   0  0  0  0  0  0  0  0  0  0  0  0
   -3.6172   12.4018    0.0000 C   0  0  0  0  0  0  0  0  0  0  0  0
   -2.0046   10.1682    0.0000 N   0  0  0  0  0  0  0  0  0  0  0  0
   -1.8478   11.6600    0.0000 C   0  0  0  0  0  0  0  0  0  0  0  0
   -0.8899    9.1645    0.0000 N   0  0  0  0  0  0  0  0  0  0  0  0
   -1.5000    5.1962    0.0000 N   0  0  0  0  0  0  0  0  0  0  0  0
   -1.5000    0.0000    0.0000 C   0  0  0  0  0  0  0  0  0  0  0  0
   -0.7500   -1.2990    0.0000 C   0  0  0  0  0  0  0  0  0  0  0  0
  1  2  1  0
  2  3  1  0
  3  4  2  0
  3  5  1  0
  5  6  2  0
  6  7  1  0
  7  8  1  0
  7  9  1  0
  9 10  2  0
 10 11  1  0
 10 12  1  0
 12 13  2  0
 13 14  1  0
 14 15  1  0
 15 16  2  0
 16 17  1  0
 17 18  2  0
 18 19  1  0
 19 20  1  0
 20 21  1  0
 21 22  2  0
 22 23  1  0
 23 24  1  0
 24 25  1  0
 24 26  1  0
 22 27  1  0
 27 28  1  0
 27 29  1  0
 19 30  2  0
 13 31  1  0
 31 32  2  0
 32  5  1  0
 32  9  1  0
 30 15  1  0
 29 20  2  0
M  END
>  <Compound_ID>  (174) 
CHEMBL4744190

>  <Molecule Name>  (174) 
nan

>  <Molecular Weight>  (174) 
434.5

>  <AlogP>  (174) 
2.66

>  <Smiles>  (174) 
COC(=O)c1nn(C)c2c(C)cc(Nc3nccc(-c4cc(CN(C)C)n(C)n4)n3)cc12

>  <Standard Type>  (174) 
IC50

>  <Standard Relation>  (174) 
'='

>  <Standard Units>  (174) 
nM

>  <Standard Value>  (174) 
0.03

>  <Assay ChEMBL ID>  (174) 
CHEMBL4675674

>  <Assay Description>  (174) 
Inhibition of recombinant full length SYK (unknown origin) by biochemical Omnia assay

>  <BAO Format ID>  (174) 
BAO_0000357

>  <BAO Label>  (174) 
single protein format

>  <Assay Organism>  (174) 
Homo sapiens

>  <Target ChEMBL ID>  (174) 
CHEMBL2599

>  <Target Name>  (174) 
Tyrosine-protein kinase SYK

>  <Target Organism>  (174) 
Homo sapiens

>  <Target Type>  (174) 
SINGLE PROTEIN

>  <Document ChEMBL ID>  (174) 
CHEMBL4673232

>  <Source Description>  (174) 
Scientific Literature

>  <Document Journal>  (174) 
Bioorg Med Chem Lett

>  <Document Year>  (174) 
2020.0

>  <Active>  (174) 
1.0

>  <bits>  (174) 
<rdkit.DataStructs.cDataStructs.ExplicitBitVect object at 0x00000193F34058C0>

>  <Group>  (174) 
G2

$$$$

     RDKit          2D

 38 42  0  0  0  0  0  0  0  0999 V2000
   -7.7206    6.7722    0.0000 C   0  0  0  0  0  0  0  0  0  0  0  0
   -8.0325    5.3050    0.0000 O   0  0  0  0  0  0  0  0  0  0  0  0
   -6.9177    4.3013    0.0000 C   0  0  0  0  0  0  0  0  0  0  0  0
   -5.4912    4.7648    0.0000 C   0  0  0  0  0  0  0  0  0  0  0  0
   -4.3764    3.7611    0.0000 C   0  0  0  0  0  0  0  0  0  0  0  0
   -4.6883    2.2939    0.0000 C   0  0  0  0  0  0  0  0  0  0  0  0
   -3.5736    1.2902    0.0000 N   0  0  0  0  0  0  0  0  0  0  0  0
   -2.1470    1.7537    0.0000 C   0  0  0  0  0  0  0  0  0  0  0  0
   -1.8351    3.2209    0.0000 C   0  0  0  0  0  0  0  0  0  0  0  0
   -0.4086    3.6844    0.0000 C   0  0  0  0  0  0  0  0  0  0  0  0
   -0.0967    5.1517    0.0000 N   0  0  0  0  0  0  0  0  0  0  0  0
    1.3299    5.6152    0.0000 C   0  0  0  0  0  0  0  0  0  0  0  0
    1.6418    7.0824    0.0000 C   0  0  0  0  0  0  0  0  0  0  0  0
    0.5271    8.0861    0.0000 C   0  0  0  0  0  0  0  0  0  0  0  0
   -0.8995    7.6226    0.0000 C   0  0  0  0  0  0  0  0  0  0  0  0
   -2.0143    8.6263    0.0000 N   0  0  0  0  0  0  0  0  0  0  0  0
   -1.7024   10.0935    0.0000 C   0  0  0  0  0  0  0  0  0  0  0  0
   -0.2758   10.5570    0.0000 O   0  0  0  0  0  0  0  0  0  0  0  0
   -2.8171   11.0972    0.0000 C   0  0  0  0  0  0  0  0  0  0  0  0
   -2.5052   12.5644    0.0000 C   0  0  0  0  0  0  0  0  0  0  0  0
   -3.6200   13.5681    0.0000 C   0  0  0  0  0  0  0  0  0  0  0  0
   -5.0465   13.1046    0.0000 C   0  0  0  0  0  0  0  0  0  0  0  0
   -6.1613   14.1083    0.0000 C   0  0  0  0  0  0  0  0  0  0  0  0
   -7.5878   13.6448    0.0000 O   0  0  0  0  0  0  0  0  0  0  0  0
   -5.8494   15.5755    0.0000 O   0  0  0  0  0  0  0  0  0  0  0  0
   -5.3584   11.6374    0.0000 C   0  0  0  0  0  0  0  0  0  0  0  0
   -4.2437   10.6337    0.0000 C   0  0  0  0  0  0  0  0  0  0  0  0
   -1.2114    6.1554    0.0000 C   0  0  0  0  0  0  0  0  0  0  0  0
    0.7062    2.6807    0.0000 N   0  0  0  0  0  0  0  0  0  0  0  0
    0.3943    1.2135    0.0000 N   0  0  0  0  0  0  0  0  0  0  0  0
    1.2760    0.0000    0.0000 C   0  0  0  0  0  0  0  0  0  0  0  0
    0.3943   -1.2135    0.0000 C   0  0  0  0  0  0  0  0  0  0  0  0
   -1.0323   -0.7500    0.0000 N   0  0  0  0  0  0  0  0  0  0  0  0
   -1.0323    0.7500    0.0000 C   0  0  0  0  0  0  0  0  0  0  0  0
   -6.1149    1.8303    0.0000 N   0  0  0  0  0  0  0  0  0  0  0  0
   -7.2296    2.8340    0.0000 C   0  0  0  0  0  0  0  0  0  0  0  0
   -8.6562    2.3705    0.0000 O   0  0  0  0  0  0  0  0  0  0  0  0
   -8.9681    0.9033    0.0000 C   0  0  0  0  0  0  0  0  0  0  0  0
  1  2  1  0
  2  3  1  0
  3  4  2  0
  4  5  1  0
  5  6  2  0
  6  7  1  0
  7  8  1  0
  8  9  2  0
  9 10  1  0
 10 11  1  0
 11 12  1  0
 12 13  1  0
 13 14  1  0
 14 15  1  0
 15 16  1  0
 16 17  1  0
 17 18  2  0
 17 19  1  0
 19 20  2  0
 20 21  1  0
 21 22  2  0
 22 23  1  0
 23 24  2  0
 23 25  1  0
 22 26  1  0
 26 27  2  0
 15 28  1  0
 10 29  2  0
 29 30  1  0
 30 31  1  0
 31 32  2  0
 32 33  1  0
 33 34  2  0
  6 35  1  0
 35 36  2  0
 36 37  1  0
 37 38  1  0
 36  3  1  0
 34  8  1  0
 28 11  1  0
 34 30  1  0
 27 19  1  0
M  END
>  <Compound_ID>  (175) 
CHEMBL3981189

>  <Molecule Name>  (175) 
nan

>  <Molecular Weight>  (175) 
517.55

>  <AlogP>  (175) 
2.98

>  <Smiles>  (175) 
COc1ccc(Nc2cc(N3CCCC(NC(=O)c4ccc(C(=O)O)cc4)C3)nn3ccnc23)nc1OC

>  <Standard Type>  (175) 
IC50

>  <Standard Relation>  (175) 
'='

>  <Standard Units>  (175) 
nM

>  <Standard Value>  (175) 
2.2

>  <Assay ChEMBL ID>  (175) 
CHEMBL3887423

>  <Assay Description>  (175) 
Inhibition Assay: Assay plates: 96-well MultiScreen 0.65 um filter plates (Millipore Cat. No.: MADVNOB10)Streptavidin coated beads: Streptavidin Sepharose, suspension 5.0 mL, in 50 mM EDTA/PBS diluted (1:100), (Amersham, Cat. No.: 17-5113-01)Compounds: 10 mM in 100% dimethylsulfoxide (DMSO), final conc.: compound 0.003-100 uM in 10% DMSOEnzyme: SYK RPA purified, truncated construct of Spleen Tyrosine Kinase aa 360-635, stock solution 1 mg/mL, MW: 31.2 KDa, final conc.:0.0005 uM. Peptide 1: biotinylated peptide is derived from a naturally occurring phosphor-acceptor consensus sequence (Biotin-EPEGDYEEVLE), special order from QCB, stock solution 20 mM, final conc.: 5.0 uM.ATP: Adenosine-5'-triphosphate 20 mM, (ROCHE Cat. No.: 93202720), final concentration: 20 uM Buffer: HEPES: 2-Hydroxyethyl piperazine-2-ethanesulfonic acid (Sigma, Cat. No.: H-3375)final concentration: 50 mM HEPES pH7.5BSA: Bovine Serum Albumin Fraction V, fatty acid free (Roche Diagnostics GmbH, Cat. No. 9100221).

>  <BAO Format ID>  (175) 
BAO_0000357

>  <BAO Label>  (175) 
single protein format

>  <Assay Organism>  (175) 
None

>  <Target ChEMBL ID>  (175) 
CHEMBL2599

>  <Target Name>  (175) 
Tyrosine-protein kinase SYK

>  <Target Organism>  (175) 
Homo sapiens

>  <Target Type>  (175) 
SINGLE PROTEIN

>  <Document ChEMBL ID>  (175) 
CHEMBL3886315

>  <Source Description>  (175) 
BindingDB Database

>  <Document Journal>  (175) 
nan

>  <Document Year>  (175) 
2015.0

>  <Active>  (175) 
1.0

>  <bits>  (175) 
<rdkit.DataStructs.cDataStructs.ExplicitBitVect object at 0x00000193F3406810>

>  <Group>  (175) 
G2

$$$$

     RDKit          2D

 29 32  0  0  0  0  0  0  0  0999 V2000
   -8.2500   -9.0933    0.0000 C   0  0  0  0  0  0  0  0  0  0  0  0
   -7.5000   -7.7942    0.0000 O   0  0  0  0  0  0  0  0  0  0  0  0
   -6.0000   -7.7942    0.0000 C   0  0  0  0  0  0  0  0  0  0  0  0
   -5.2500   -6.4952    0.0000 C   0  0  0  0  0  0  0  0  0  0  0  0
   -6.0000   -5.1962    0.0000 C   0  0  0  0  0  0  0  0  0  0  0  0
   -5.2500   -3.8971    0.0000 C   0  0  0  0  0  0  0  0  0  0  0  0
   -3.7500   -3.8971    0.0000 N   0  0  0  0  0  0  0  0  0  0  0  0
   -3.0000   -5.1962    0.0000 C   0  0  0  0  0  0  0  0  0  0  0  0
   -1.5000   -5.1962    0.0000 C   0  0  0  0  0  0  0  0  0  0  0  0
   -0.7500   -6.4952    0.0000 C   0  0  0  0  0  0  0  0  0  0  0  0
    0.7500   -6.4952    0.0000 C   0  0  0  0  0  0  0  0  0  0  0  0
    1.5000   -5.1962    0.0000 N   0  0  0  0  0  0  0  0  0  0  0  0
    0.7500   -3.8971    0.0000 C   0  0  0  0  0  0  0  0  0  0  0  0
    1.5000   -2.5981    0.0000 N   0  0  0  0  0  0  0  0  0  0  0  0
    0.7500   -1.2990    0.0000 C   0  0  0  0  0  0  0  0  0  0  0  0
    1.5000    0.0000    0.0000 C   0  0  0  0  0  0  0  0  0  0  0  0
    0.7500    1.2990    0.0000 C   0  0  0  0  0  0  0  0  0  0  0  0
   -0.7500    1.2990    0.0000 C   0  0  0  0  0  0  0  0  0  0  0  0
   -1.7537    2.4138    0.0000 N   0  0  0  0  0  0  0  0  0  0  0  0
   -3.1240    1.8037    0.0000 C   0  0  0  0  0  0  0  0  0  0  0  0
   -4.4231    2.5537    0.0000 C   0  0  0  0  0  0  0  0  0  0  0  0
   -3.6731    3.8527    0.0000 C   0  0  0  0  0  0  0  0  0  0  0  0
   -5.1731    1.2546    0.0000 C   0  0  0  0  0  0  0  0  0  0  0  0
   -5.7221    3.3037    0.0000 C   0  0  0  0  0  0  0  0  0  0  0  0
   -2.9672    0.3119    0.0000 C   0  0  0  0  0  0  0  0  0  0  0  0
   -1.5000    0.0000    0.0000 C   0  0  0  0  0  0  0  0  0  0  0  0
   -0.7500   -1.2990    0.0000 C   0  0  0  0  0  0  0  0  0  0  0  0
   -0.7500   -3.8971    0.0000 N   0  0  0  0  0  0  0  0  0  0  0  0
   -3.7500   -6.4952    0.0000 C   0  0  0  0  0  0  0  0  0  0  0  0
  1  2  1  0
  2  3  1  0
  3  4  1  0
  4  5  2  0
  5  6  1  0
  6  7  2  0
  7  8  1  0
  8  9  1  0
  9 10  2  0
 10 11  1  0
 11 12  2  0
 12 13  1  0
 13 14  1  0
 14 15  1  0
 15 16  2  0
 16 17  1  0
 17 18  2  0
 18 19  1  0
 19 20  1  0
 20 21  1  0
 21 22  1  0
 21 23  1  0
 21 24  1  0
 20 25  2  0
 25 26  1  0
 26 27  2  0
 13 28  2  0
  8 29  2  0
 29  4  1  0
 28  9  1  0
 27 15  1  0
 26 18  1  0
M  END
>  <Compound_ID>  (176) 
CHEMBL3641506

>  <Molecule Name>  (176) 
nan

>  <Molecular Weight>  (176) 
387.49

>  <AlogP>  (176) 
5.21

>  <Smiles>  (176) 
COCc1ccnc(-c2ccnc(Nc3ccc4[nH]c(C(C)(C)C)cc4c3)n2)c1

>  <Standard Type>  (176) 
IC50

>  <Standard Relation>  (176) 
'='

>  <Standard Units>  (176) 
nM

>  <Standard Value>  (176) 
21.1

>  <Assay ChEMBL ID>  (176) 
CHEMBL3705803

>  <Assay Description>  (176) 
Kinase Glo Luminescence Kinase Assay: Recombinant human Syk (amino acids 342-635) was expressed as a fusion protein with an N-terminal GST tag, affinity-purified and deep-frozen at a concentration of approx. 50-100 uM in test buffer (25 mM HEPES pH7.5; 25 mM MgCl2; 5 mM MnCl2; 50 mM KCl; 0.2% BSA; 0.01% CHAPS; 100 uM Na3VO4; 0.5 mM DTT) and 10% glycerol at -80 C until use. The catalytic activity of the GST-Syk kinase fusion protein was determined using the Kinase Glo Luminescence Kinase test (Promega; V6712). In this homogeneous test the amount of ATP remaining after the kinase reaction is quantified by a luciferin-luciferase reaction using luminescence. The luminescence signal obtained correlates with the amount of ATP still present and thus correlates inversely with the activity of the protein kinase. The test compounds were dissolved in 100% DMSO at a concentration of 10 mM and diluted in DMSO to a concentration of 1 mM.

>  <BAO Format ID>  (176) 
BAO_0000357

>  <BAO Label>  (176) 
single protein format

>  <Assay Organism>  (176) 
Homo sapiens

>  <Target ChEMBL ID>  (176) 
CHEMBL2599

>  <Target Name>  (176) 
Tyrosine-protein kinase SYK

>  <Target Organism>  (176) 
Homo sapiens

>  <Target Type>  (176) 
SINGLE PROTEIN

>  <Document ChEMBL ID>  (176) 
CHEMBL3638486

>  <Source Description>  (176) 
BindingDB Database

>  <Document Journal>  (176) 
nan

>  <Document Year>  (176) 
2014.0

>  <Active>  (176) 
1.0

>  <bits>  (176) 
<rdkit.DataStructs.cDataStructs.ExplicitBitVect object at 0x00000193F3406880>

>  <Group>  (176) 
G2

$$$$

     RDKit          2D

 32 35  0  0  0  0  0  0  0  0999 V2000
    3.0000    0.0000    0.0000 C   0  0  0  0  0  0  0  0  0  0  0  0
    1.5000    0.0000    0.0000 C   0  0  0  0  0  0  0  0  0  0  0  0
    0.7500   -1.2990    0.0000 C   0  0  0  0  0  0  0  0  0  0  0  0
   -0.7500   -1.2990    0.0000 C   0  0  0  0  0  0  0  0  0  0  0  0
   -1.5000   -2.5981    0.0000 N   0  0  0  0  0  0  0  0  0  0  0  0
   -3.0000   -2.5981    0.0000 C   0  0  0  0  0  0  0  0  0  0  0  0
   -3.7500   -1.2990    0.0000 N   0  0  0  0  0  0  0  0  0  0  0  0
   -5.2500   -1.2990    0.0000 C   0  0  0  0  0  0  0  0  0  0  0  0
   -6.0000   -2.5981    0.0000 C   0  0  0  0  0  0  0  0  0  0  0  0
   -5.2500   -3.8971    0.0000 C   0  0  0  0  0  0  0  0  0  0  0  0
   -6.0000   -5.1962    0.0000 C   0  0  0  0  0  0  0  0  0  0  0  0
   -6.7500   -6.4952    0.0000 F   0  0  0  0  0  0  0  0  0  0  0  0
   -7.2990   -4.4462    0.0000 F   0  0  0  0  0  0  0  0  0  0  0  0
   -4.7010   -5.9462    0.0000 F   0  0  0  0  0  0  0  0  0  0  0  0
   -3.7500   -3.8971    0.0000 N   0  0  0  0  0  0  0  0  0  0  0  0
   -1.5000    0.0000    0.0000 C   0  0  0  0  0  0  0  0  0  0  0  0
   -0.7500    1.2990    0.0000 C   0  0  0  0  0  0  0  0  0  0  0  0
   -1.5000    2.5981    0.0000 C   0  0  0  0  0  0  0  0  0  0  0  0
   -2.9918    2.7549    0.0000 C   0  0  0  0  0  0  0  0  0  0  0  0
   -3.3037    4.2221    0.0000 N   0  0  0  0  0  0  0  0  0  0  0  0
   -2.0046    4.9721    0.0000 C   0  0  0  0  0  0  0  0  0  0  0  0
   -1.8478    6.4639    0.0000 C   0  0  0  0  0  0  0  0  0  0  0  0
   -0.4775    7.0740    0.0000 C   0  0  0  0  0  0  0  0  0  0  0  0
    0.1326    5.7037    0.0000 C   0  0  0  0  0  0  0  0  0  0  0  0
   -1.0876    8.4443    0.0000 C   0  0  0  0  0  0  0  0  0  0  0  0
    0.8928    7.6841    0.0000 C   0  0  0  0  0  0  0  0  0  0  0  0
    1.2047    9.1513    0.0000 N   0  0  0  0  0  0  0  0  0  0  0  0
    2.6965    9.3081    0.0000 N   0  0  0  0  0  0  0  0  0  0  0  0
    3.3066    7.9378    0.0000 C   0  0  0  0  0  0  0  0  0  0  0  0
    2.1919    6.9341    0.0000 O   0  0  0  0  0  0  0  0  0  0  0  0
   -0.8899    3.9684    0.0000 S   0  0  0  0  0  0  0  0  0  0  0  0
    0.7500    1.2990    0.0000 C   0  0  0  0  0  0  0  0  0  0  0  0
  1  2  1  0
  2  3  2  0
  3  4  1  0
  4  5  1  0
  5  6  1  0
  6  7  2  0
  7  8  1  0
  8  9  2  0
  9 10  1  0
 10 11  1  0
 11 12  1  0
 11 13  1  0
 11 14  1  0
 10 15  2  0
  4 16  2  0
 16 17  1  0
 17 18  1  0
 18 19  2  0
 19 20  1  0
 20 21  2  0
 21 22  1  0
 22 23  1  0
 23 24  1  0
 23 25  1  0
 23 26  1  0
 26 27  2  0
 27 28  1  0
 28 29  2  0
 29 30  1  0
 21 31  1  0
 17 32  2  0
 32  2  1  0
 15  6  1  0
 31 18  1  0
 30 26  1  0
M  END
>  <Compound_ID>  (177) 
CHEMBL3685808

>  <Molecule Name>  (177) 
nan

>  <Molecular Weight>  (177) 
460.49

>  <AlogP>  (177) 
5.57

>  <Smiles>  (177) 
Cc1cc(Nc2nccc(C(F)(F)F)n2)cc(-c2cnc(CC(C)(C)c3nnco3)s2)c1

>  <Standard Type>  (177) 
IC50

>  <Standard Relation>  (177) 
'='

>  <Standard Units>  (177) 
nM

>  <Standard Value>  (177) 
7.0

>  <Assay ChEMBL ID>  (177) 
CHEMBL3705225

>  <Assay Description>  (177) 
Homogeneous Time-Resolved Fluorescence (HTRF) Assay : A recombinant GST-hSYK fusion protein was used to measure potency of compounds to inhibit human SYK activity. The recombinant human GST-SYK (Carna Biosciences #08-176) (5 pM final concentration) was incubated with various concentrations of the inhibitor diluted in DMSO (0.1% final concentration) for 10 minutes at room temperature in 15 mM Tris-HCl (pH 7.5), 0.01% tween 20, 2 mM DTT in 384 well plate format. To initiate the reaction the biotinylated substrate peptide (250 nM final concentration) that contains the phosphorylation site for SYK was added with magnesium (5 mM final concentration) and ATP (25 μM final concentration). Final volume of the reaction was 10 μL. Phosphorylation of the peptide was allowed to proceed for 45′ at room temperature.

>  <BAO Format ID>  (177) 
BAO_0000357

>  <BAO Label>  (177) 
single protein format

>  <Assay Organism>  (177) 
Homo sapiens

>  <Target ChEMBL ID>  (177) 
CHEMBL2599

>  <Target Name>  (177) 
Tyrosine-protein kinase SYK

>  <Target Organism>  (177) 
Homo sapiens

>  <Target Type>  (177) 
SINGLE PROTEIN

>  <Document ChEMBL ID>  (177) 
CHEMBL3639355

>  <Source Description>  (177) 
BindingDB Database

>  <Document Journal>  (177) 
nan

>  <Document Year>  (177) 
2014.0

>  <Active>  (177) 
1.0

>  <bits>  (177) 
<rdkit.DataStructs.cDataStructs.ExplicitBitVect object at 0x00000193F34051C0>

>  <Group>  (177) 
G2

$$$$

     RDKit          2D

 41 45  0  0  0  0  0  0  0  0999 V2000
  -11.6913   -1.3573    0.0000 C   0  0  0  0  0  0  0  0  0  0  0  0
  -11.6913   -2.8573    0.0000 C   0  0  0  0  0  0  0  0  0  0  0  0
  -12.9904   -3.6073    0.0000 O   0  0  0  0  0  0  0  0  0  0  0  0
  -10.3923   -3.6073    0.0000 N   0  0  0  0  0  0  0  0  0  0  0  0
   -9.0933   -2.8573    0.0000 C   0  0  0  0  0  0  0  0  0  0  0  0
   -7.7942   -3.6073    0.0000 C   0  0  0  0  0  0  0  0  0  0  0  0
   -7.7942   -5.1073    0.0000 N   0  0  0  0  0  0  0  0  0  0  0  0
   -6.4952   -5.8573    0.0000 C   0  0  0  0  0  0  0  0  0  0  0  0
   -6.4952   -7.3573    0.0000 C   0  0  0  0  0  0  0  0  0  0  0  0
   -5.1962   -8.1073    0.0000 C   0  0  0  0  0  0  0  0  0  0  0  0
   -3.8971   -7.3573    0.0000 C   0  0  0  0  0  0  0  0  0  0  0  0
   -2.5981   -8.1073    0.0000 N   0  0  0  0  0  0  0  0  0  0  0  0
   -1.2990   -7.3573    0.0000 C   0  0  0  0  0  0  0  0  0  0  0  0
    0.0000   -8.1073    0.0000 N   0  0  0  0  0  0  0  0  0  0  0  0
    1.2990   -7.3573    0.0000 C   0  0  0  0  0  0  0  0  0  0  0  0
    1.2990   -5.8573    0.0000 C   0  0  0  0  0  0  0  0  0  0  0  0
    2.5981   -5.1073    0.0000 C   0  0  0  0  0  0  0  0  0  0  0  0
    3.8971   -4.3573    0.0000 F   0  0  0  0  0  0  0  0  0  0  0  0
    3.3481   -6.4063    0.0000 F   0  0  0  0  0  0  0  0  0  0  0  0
    1.8481   -3.8083    0.0000 F   0  0  0  0  0  0  0  0  0  0  0  0
   -0.0000   -5.1073    0.0000 C   0  0  0  0  0  0  0  0  0  0  0  0
   -0.0000   -3.6073    0.0000 N   0  0  0  0  0  0  0  0  0  0  0  0
    1.2135   -2.7256    0.0000 C   0  0  0  0  0  0  0  0  0  0  0  0
    0.7500   -1.2990    0.0000 C   0  0  0  0  0  0  0  0  0  0  0  0
    1.5000    0.0000    0.0000 C   0  0  0  0  0  0  0  0  0  0  0  0
    0.7500    1.2990    0.0000 C   0  0  0  0  0  0  0  0  0  0  0  0
   -0.7500    1.2990    0.0000 C   0  0  0  0  0  0  0  0  0  0  0  0
   -1.5000    0.0000    0.0000 C   0  0  0  0  0  0  0  0  0  0  0  0
   -3.0000    0.0000    0.0000 N   0  0  0  0  0  0  0  0  0  0  0  0
   -3.7500    1.2990    0.0000 C   0  0  0  0  0  0  0  0  0  0  0  0
   -3.7500   -1.2990    0.0000 S   0  0  0  0  0  0  0  0  0  0  0  0
   -4.5000   -2.5981    0.0000 C   0  0  0  0  0  0  0  0  0  0  0  0
   -2.4510   -2.0490    0.0000 O   0  0  0  0  0  0  0  0  0  0  0  0
   -5.0490   -0.5490    0.0000 O   0  0  0  0  0  0  0  0  0  0  0  0
   -0.7500   -1.2990    0.0000 C   0  0  0  0  0  0  0  0  0  0  0  0
   -1.2135   -2.7256    0.0000 C   0  0  0  0  0  0  0  0  0  0  0  0
   -1.2990   -5.8573    0.0000 N   0  0  0  0  0  0  0  0  0  0  0  0
   -3.8971   -5.8573    0.0000 C   0  0  0  0  0  0  0  0  0  0  0  0
   -5.1962   -5.1073    0.0000 C   0  0  0  0  0  0  0  0  0  0  0  0
   -9.0933   -5.8573    0.0000 C   0  0  0  0  0  0  0  0  0  0  0  0
  -10.3923   -5.1073    0.0000 C   0  0  0  0  0  0  0  0  0  0  0  0
  1  2  1  0
  2  3  2  0
  2  4  1  0
  4  5  1  0
  5  6  1  0
  6  7  1  0
  7  8  1  0
  8  9  2  0
  9 10  1  0
 10 11  2  0
 11 12  1  0
 12 13  1  0
 13 14  2  0
 14 15  1  0
 15 16  2  0
 16 17  1  0
 17 18  1  0
 17 19  1  0
 17 20  1  0
 16 21  1  0
 21 22  1  0
 22 23  1  0
 23 24  1  0
 24 25  2  0
 25 26  1  0
 26 27  2  0
 27 28  1  0
 28 29  1  0
 29 30  1  0
 29 31  1  0
 31 32  1  0
 31 33  2  0
 31 34  2  0
 28 35  2  0
 35 36  1  0
 21 37  2  0
 11 38  1  0
 38 39  2  0
  7 40  1  0
 40 41  1  0
 41  4  1  0
 39  8  1  0
 37 13  1  0
 36 22  1  0
 35 24  1  0
M  END
>  <Compound_ID>  (178) 
CHEMBL4476226

>  <Molecule Name>  (178) 
nan

>  <Molecular Weight>  (178) 
589.64

>  <AlogP>  (178) 
3.82

>  <Smiles>  (178) 
CC(=O)N1CCN(c2ccc(Nc3ncc(C(F)(F)F)c(N4Cc5cccc(N(C)S(C)(=O)=O)c5C4)n3)cc2)CC1

>  <Standard Type>  (178) 
IC50

>  <Standard Relation>  (178) 
'='

>  <Standard Units>  (178) 
nM

>  <Standard Value>  (178) 
5.1

>  <Assay ChEMBL ID>  (178) 
CHEMBL4326653

>  <Assay Description>  (178) 
Inhibition of human SYK using poly[Glu:Tyr] (4:1) as substrate by [gamma-33P]-ATP assay

>  <BAO Format ID>  (178) 
BAO_0000357

>  <BAO Label>  (178) 
single protein format

>  <Assay Organism>  (178) 
Homo sapiens

>  <Target ChEMBL ID>  (178) 
CHEMBL2599

>  <Target Name>  (178) 
Tyrosine-protein kinase SYK

>  <Target Organism>  (178) 
Homo sapiens

>  <Target Type>  (178) 
SINGLE PROTEIN

>  <Document ChEMBL ID>  (178) 
CHEMBL4325842

>  <Source Description>  (178) 
Scientific Literature

>  <Document Journal>  (178) 
Bioorg Med Chem Lett

>  <Document Year>  (178) 
2018.0

>  <Active>  (178) 
1.0

>  <bits>  (178) 
<rdkit.DataStructs.cDataStructs.ExplicitBitVect object at 0x00000193F3407B50>

>  <Group>  (178) 
G2

$$$$

     RDKit          2D

 38 42  0  0  0  0  0  0  0  0999 V2000
   -4.4192    7.2732    0.0000 C   0  0  0  0  0  0  0  0  0  0  0  0
   -2.9274    7.4300    0.0000 C   0  0  0  0  0  0  0  0  0  0  0  0
   -2.3173    8.8003    0.0000 C   0  0  0  0  0  0  0  0  0  0  0  0
   -0.8255    8.9571    0.0000 C   0  0  0  0  0  0  0  0  0  0  0  0
   -0.2154   10.3274    0.0000 N   0  0  0  0  0  0  0  0  0  0  0  0
    1.2764   10.4842    0.0000 C   0  0  0  0  0  0  0  0  0  0  0  0
    2.1581    9.2707    0.0000 C   0  0  0  0  0  0  0  0  0  0  0  0
    3.6498    9.4275    0.0000 C   0  0  0  0  0  0  0  0  0  0  0  0
    4.5315    8.2139    0.0000 C   0  0  0  0  0  0  0  0  0  0  0  0
    5.4132    7.0004    0.0000 F   0  0  0  0  0  0  0  0  0  0  0  0
    3.3180    7.3323    0.0000 F   0  0  0  0  0  0  0  0  0  0  0  0
    5.7450    9.0956    0.0000 F   0  0  0  0  0  0  0  0  0  0  0  0
    4.2600   10.7978    0.0000 C   0  0  0  0  0  0  0  0  0  0  0  0
    3.3783   12.0113    0.0000 C   0  0  0  0  0  0  0  0  0  0  0  0
    1.8865   11.8545    0.0000 N   0  0  0  0  0  0  0  0  0  0  0  0
    0.0562    7.7436    0.0000 N   0  0  0  0  0  0  0  0  0  0  0  0
   -0.5539    6.3732    0.0000 C   0  0  0  0  0  0  0  0  0  0  0  0
    0.3277    5.1597    0.0000 C   0  0  0  0  0  0  0  0  0  0  0  0
    1.8277    5.1597    0.0000 C   0  0  0  0  0  0  0  0  0  0  0  0
    2.2913    3.7331    0.0000 N   0  0  0  0  0  0  0  0  0  0  0  0
    1.0777    2.8515    0.0000 C   0  0  0  0  0  0  0  0  0  0  0  0
    1.0777    1.3515    0.0000 C   0  0  0  0  0  0  0  0  0  0  0  0
   -0.3846    1.6852    0.0000 O   0  0  0  0  0  0  0  0  0  0  0  0
    0.4269    0.0000    0.0000 C   0  0  0  0  0  0  0  0  0  0  0  0
    1.0777   -1.3515    0.0000 C   0  0  0  0  0  0  0  0  0  0  0  0
    2.5401   -1.6852    0.0000 C   0  0  0  0  0  0  0  0  0  0  0  0
    3.7129   -0.7500    0.0000 C   0  0  0  0  0  0  0  0  0  0  0  0
    3.7129    0.7500    0.0000 C   0  0  0  0  0  0  0  0  0  0  0  0
    5.1092    1.2980    0.0000 C   0  0  0  0  0  0  0  0  0  0  0  0
    5.3328    2.7813    0.0000 C   0  0  0  0  0  0  0  0  0  0  0  0
    6.7291    3.3293    0.0000 C   0  0  0  0  0  0  0  0  0  0  0  0
    7.9018    2.3940    0.0000 O   0  0  0  0  0  0  0  0  0  0  0  0
    6.9526    4.8125    0.0000 O   0  0  0  0  0  0  0  0  0  0  0  0
    4.1600    3.7165    0.0000 C   0  0  0  0  0  0  0  0  0  0  0  0
    2.7637    3.1685    0.0000 C   0  0  0  0  0  0  0  0  0  0  0  0
    2.5401    1.6852    0.0000 C   0  0  0  0  0  0  0  0  0  0  0  0
   -0.1358    3.7331    0.0000 S   0  0  0  0  0  0  0  0  0  0  0  0
   -2.0457    6.2164    0.0000 C   0  0  0  0  0  0  0  0  0  0  0  0
  1  2  1  0
  2  3  2  0
  3  4  1  0
  4  5  1  0
  5  6  1  0
  6  7  2  0
  7  8  1  0
  8  9  1  0
  9 10  1  0
  9 11  1  0
  9 12  1  0
  8 13  2  0
 13 14  1  0
 14 15  2  0
  4 16  2  0
 16 17  1  0
 17 18  1  0
 18 19  2  0
 19 20  1  0
 20 21  2  0
 21 22  1  0
 22 23  1  6
 22 24  1  0
 24 25  1  0
 25 26  1  0
 26 27  1  0
 27 28  1  0
 28 29  2  0
 29 30  1  0
 30 31  1  0
 31 32  2  0
 31 33  1  0
 30 34  2  0
 34 35  1  0
 35 36  2  0
 21 37  1  0
 17 38  2  0
 38  2  1  0
 15  6  1  0
 37 18  1  0
 36 22  1  0
 36 28  1  0
M  END
>  <Compound_ID>  (179) 
CHEMBL3698416

>  <Molecule Name>  (179) 
nan

>  <Molecular Weight>  (179) 
540.57

>  <AlogP>  (179) 
6.33

>  <Smiles>  (179) 
Cc1cc(Nc2cc(C(F)(F)F)ccn2)nc(-c2cnc([C@]3(O)CCCCc4cc(C(=O)O)ccc43)s2)c1

>  <Standard Type>  (179) 
IC50

>  <Standard Relation>  (179) 
'='

>  <Standard Units>  (179) 
nM

>  <Standard Value>  (179) 
2.07

>  <Assay ChEMBL ID>  (179) 
CHEMBL3706005

>  <Assay Description>  (179) 
Homogeneous Time-Resolved Fluorescence Assay: A recombinant GST-hSyk fusion protein was used to measure potency of compounds to inhibit human Syk activity. The recombinant human GST-Syk (Cama Biosciences #08-176) (5 pM final concentration) was incubated with various concentrations of the inhibitor diluted in DMSO (0.1% final concentration) for 10 minutes at rt in 15 mM Tris-HCl (pH 7.5), 0.01% tween 20, 2 mM DTT in 384 well plate format. To initiate the reaction the biotinylated substrate peptide (250 nM final concentration) that contains the phosphorylation site for Syk was added with magnesium (5 mM final concentration) and ATP (25 uM final concentration). Final volume of the reaction was 10 uL. Phosphorylation of the peptide was allowed to proceed for 45' at rt. To quench the reaction and detect the phosphorylated product, 2 nM of a Europium-anti-phosphotyrosine antibody (Perkin Elmer #AD0161) and 70 nM SA-APC (Perkin-Elmer #CR130-100) were added together in 15 mM Tris pH 7.5, 40 mM EDTA, 0.01% tween 20.

>  <BAO Format ID>  (179) 
BAO_0000357

>  <BAO Label>  (179) 
single protein format

>  <Assay Organism>  (179) 
Homo sapiens

>  <Target ChEMBL ID>  (179) 
CHEMBL2599

>  <Target Name>  (179) 
Tyrosine-protein kinase SYK

>  <Target Organism>  (179) 
Homo sapiens

>  <Target Type>  (179) 
SINGLE PROTEIN

>  <Document ChEMBL ID>  (179) 
CHEMBL3639224

>  <Source Description>  (179) 
BindingDB Database

>  <Document Journal>  (179) 
nan

>  <Document Year>  (179) 
2014.0

>  <Active>  (179) 
1.0

>  <bits>  (179) 
<rdkit.DataStructs.cDataStructs.ExplicitBitVect object at 0x00000193F34046D0>

>  <Group>  (179) 
G2

$$$$

     RDKit          2D

 32 35  0  0  0  0  0  0  0  0999 V2000
   -8.2500   -1.2990    0.0000 C   0  0  0  0  0  0  0  0  0  0  0  0
   -7.5000   -2.5981    0.0000 O   0  0  0  0  0  0  0  0  0  0  0  0
   -6.0000   -2.5981    0.0000 C   0  0  0  0  0  0  0  0  0  0  0  0
   -5.2500   -1.2990    0.0000 C   0  0  0  0  0  0  0  0  0  0  0  0
   -3.7500   -1.2990    0.0000 C   0  0  0  0  0  0  0  0  0  0  0  0
   -3.0000   -2.5981    0.0000 C   0  0  0  0  0  0  0  0  0  0  0  0
   -3.7500   -3.8971    0.0000 C   0  0  0  0  0  0  0  0  0  0  0  0
   -3.0000   -5.1962    0.0000 N   0  0  0  0  0  0  0  0  0  0  0  0
   -1.5000   -5.1962    0.0000 C   0  0  0  0  0  0  0  0  0  0  0  0
   -0.7500   -6.4952    0.0000 N   0  0  0  0  0  0  0  0  0  0  0  0
    0.7500   -6.4952    0.0000 C   0  0  0  0  0  0  0  0  0  0  0  0
    1.5000   -5.1962    0.0000 C   0  0  0  0  0  0  0  0  0  0  0  0
    3.0000   -5.1962    0.0000 F   0  0  0  0  0  0  0  0  0  0  0  0
    0.7500   -3.8971    0.0000 C   0  0  0  0  0  0  0  0  0  0  0  0
    1.5000   -2.5981    0.0000 N   0  0  0  0  0  0  0  0  0  0  0  0
    0.7500   -1.2990    0.0000 C   0  0  0  0  0  0  0  0  0  0  0  0
    1.5000    0.0000    0.0000 C   0  0  0  0  0  0  0  0  0  0  0  0
    0.7500    1.2990    0.0000 C   0  0  0  0  0  0  0  0  0  0  0  0
   -0.7500    1.2990    0.0000 C   0  0  0  0  0  0  0  0  0  0  0  0
   -1.5000    0.0000    0.0000 C   0  0  0  0  0  0  0  0  0  0  0  0
   -0.7500   -1.2990    0.0000 C   0  0  0  0  0  0  0  0  0  0  0  0
   -3.0000    0.0000    0.0000 N   0  0  0  0  0  0  0  0  0  0  0  0
   -3.7500    1.2990    0.0000 C   0  0  0  0  0  0  0  0  0  0  0  0
   -3.0000    2.5981    0.0000 C   0  0  0  0  0  0  0  0  0  0  0  0
   -3.7500    3.8971    0.0000 C   0  0  0  0  0  0  0  0  0  0  0  0
   -1.5000    2.5981    0.0000 O   0  0  0  0  0  0  0  0  0  0  0  0
   -0.7500   -3.8971    0.0000 N   0  0  0  0  0  0  0  0  0  0  0  0
   -5.2500   -3.8971    0.0000 C   0  0  0  0  0  0  0  0  0  0  0  0
   -6.0000   -5.1962    0.0000 N   0  0  0  0  0  0  0  0  0  0  0  0
   -7.5000   -5.1962    0.0000 C   0  0  0  0  0  0  0  0  0  0  0  0
   -8.2500   -6.4952    0.0000 C   0  0  0  0  0  0  0  0  0  0  0  0
   -8.2500   -3.8971    0.0000 O   0  0  0  0  0  0  0  0  0  0  0  0
  1  2  1  0
  2  3  1  0
  3  4  2  0
  4  5  1  0
  5  6  1  0
  6  7  1  0
  7  8  1  0
  8  9  1  0
  9 10  2  0
 10 11  1  0
 11 12  2  0
 12 13  1  0
 12 14  1  0
 14 15  1  0
 15 16  1  0
 16 17  2  0
 17 18  1  0
 18 19  2  0
 19 20  1  0
 20 21  2  0
 20 22  1  0
 22 23  1  0
 23 24  1  0
 24 25  1  0
 24 26  1  0
 14 27  2  0
  7 28  2  0
 28 29  1  0
 29 30  1  0
 30 31  1  0
 30 32  2  0
 28  3  1  0
 27  9  1  0
 21 16  1  0
 26 19  1  0
M  END
>  <Compound_ID>  (180) 
CHEMBL3935494

>  <Molecule Name>  (180) 
nan

>  <Molecular Weight>  (180) 
440.48

>  <AlogP>  (180) 
3.64

>  <Smiles>  (180) 
COC1=CCCC(Nc2ncc(F)c(Nc3ccc4c(c3)NCC(C)O4)n2)=C1NC(C)=O

>  <Standard Type>  (180) 
IC50

>  <Standard Relation>  (180) 
'='

>  <Standard Units>  (180) 
nM

>  <Standard Value>  (180) 
24.0

>  <Assay ChEMBL ID>  (180) 
CHEMBL3889292

>  <Assay Description>  (180) 
Biochemical Assay: Several 2,4-pyrimidinediamine compounds were tested for the ability to inhibit Syk kinase catalyzed phosphorylation of a peptide substrate in a biochemical fluorescenced polarization assay with isolated Syk kinase. In this experiment, Compounds were diluted to 1% DMSO in kinase buffer (20 mM HEPES, pH 7.4, 5 mM MgCl2, 2 mM MnCl2, 1 mM DTT, 0.1 mg/mL acetylated Bovine Gamma Globulin). Compound in 1% DMSO (0.2% DMSO final) was mixed with ATP/substrate solution at room temperature. Syk kinase (Upstate, Lake Placid N.Y.) was added to a final reaction volume of 20 uL, and the reaction was incubated for 30 minutes at room temperature. Final enzyme reaction conditions were 20 mM HEPES, pH 7.4, 5 mM MgCl2, 2 mM MnCl2, 1 mM DTT, 0.1 mg/mL acetylated Bovine Gamma Globulin, 0.125 ng Syk, 4 uM ATP, 2.5 uM peptide substrate (biotin-EQEDEPEGDYEEVLE-CONH2, SynPep Corporation). EDTA (10 mM final)/anti-phosphotyrosine antibody (1x final)/fluorescent phosphopeptide tracer (0.5x final) was added in FP Dilution Buffer to stop the reaction for a total volume of 40 uL according to manufacturer's instructions (PanVera Corporation) The plate was incubated for 30 minutes in the dark at room temperature. Plates were read on a Polarion fluorescence polarization plate reader (Tecan). Data were converted to amount of phosphopeptide present using a calibration curve generated by competition with the phosphopeptide competitor provided in the Tyrosine Kinase Assay Kit, Green (PanVera Corporation).

>  <BAO Format ID>  (180) 
BAO_0000357

>  <BAO Label>  (180) 
single protein format

>  <Assay Organism>  (180) 
Homo sapiens

>  <Target ChEMBL ID>  (180) 
CHEMBL2599

>  <Target Name>  (180) 
Tyrosine-protein kinase SYK

>  <Target Organism>  (180) 
Homo sapiens

>  <Target Type>  (180) 
SINGLE PROTEIN

>  <Document ChEMBL ID>  (180) 
CHEMBL3887020

>  <Source Description>  (180) 
BindingDB Database

>  <Document Journal>  (180) 
nan

>  <Document Year>  (180) 
2016.0

>  <Active>  (180) 
1.0

>  <bits>  (180) 
<rdkit.DataStructs.cDataStructs.ExplicitBitVect object at 0x00000193F34076F0>

>  <Group>  (180) 
G2

$$$$

     RDKit          2D

 32 37  0  0  0  0  0  0  0  0999 V2000
   -4.0819    0.6918    0.0000 C   0  0  0  0  0  0  0  0  0  0  0  0
   -2.9672   -0.3119    0.0000 N   0  0  0  0  0  0  0  0  0  0  0  0
   -3.1240   -1.8037    0.0000 C   0  0  0  0  0  0  0  0  0  0  0  0
   -1.7537   -2.4138    0.0000 C   0  0  0  0  0  0  0  0  0  0  0  0
   -0.7500   -1.2990    0.0000 C   0  0  0  0  0  0  0  0  0  0  0  0
    0.7500   -1.2990    0.0000 C   0  0  0  0  0  0  0  0  0  0  0  0
    1.5000   -2.5981    0.0000 C   0  0  0  0  0  0  0  0  0  0  0  0
    0.8899   -3.9684    0.0000 N   0  0  0  0  0  0  0  0  0  0  0  0
    2.0046   -4.9721    0.0000 C   0  0  0  0  0  0  0  0  0  0  0  0
    2.0046   -6.4721    0.0000 C   0  0  0  0  0  0  0  0  0  0  0  0
    0.7056   -7.2221    0.0000 N   0  0  0  0  0  0  0  0  0  0  0  0
    0.5488   -8.7139    0.0000 C   0  0  0  0  0  0  0  0  0  0  0  0
   -0.9184   -9.0257    0.0000 C   0  0  0  0  0  0  0  0  0  0  0  0
   -1.5285  -10.3961    0.0000 N   0  0  0  0  0  0  0  0  0  0  0  0
   -3.0203  -10.5529    0.0000 C   0  0  0  0  0  0  0  0  0  0  0  0
   -3.9020   -9.3393    0.0000 C   0  0  0  0  0  0  0  0  0  0  0  0
   -5.3938   -9.4961    0.0000 C   0  0  0  0  0  0  0  0  0  0  0  0
   -6.0039  -10.8664    0.0000 O   0  0  0  0  0  0  0  0  0  0  0  0
   -5.1222  -12.0800    0.0000 C   0  0  0  0  0  0  0  0  0  0  0  0
   -3.6304  -11.9232    0.0000 C   0  0  0  0  0  0  0  0  0  0  0  0
   -2.7488  -13.1367    0.0000 N   0  0  0  0  0  0  0  0  0  0  0  0
   -1.6684   -7.7267    0.0000 C   0  0  0  0  0  0  0  0  0  0  0  0
   -0.6647   -6.6120    0.0000 N   0  0  0  0  0  0  0  0  0  0  0  0
    3.3037   -7.2221    0.0000 C   0  0  0  0  0  0  0  0  0  0  0  0
    4.6027   -6.4721    0.0000 C   0  0  0  0  0  0  0  0  0  0  0  0
    4.6027   -4.9721    0.0000 N   0  0  0  0  0  0  0  0  0  0  0  0
    3.3037   -4.2221    0.0000 C   0  0  0  0  0  0  0  0  0  0  0  0
    2.9918   -2.7549    0.0000 N   0  0  0  0  0  0  0  0  0  0  0  0
    1.5000    0.0000    0.0000 C   0  0  0  0  0  0  0  0  0  0  0  0
    0.7500    1.2990    0.0000 C   0  0  0  0  0  0  0  0  0  0  0  0
   -0.7500    1.2990    0.0000 C   0  0  0  0  0  0  0  0  0  0  0  0
   -1.5000    0.0000    0.0000 C   0  0  0  0  0  0  0  0  0  0  0  0
  1  2  1  0
  2  3  1  0
  3  4  2  0
  4  5  1  0
  5  6  2  0
  6  7  1  0
  7  8  2  0
  8  9  1  0
  9 10  2  0
 10 11  1  0
 11 12  1  0
 12 13  2  0
 13 14  1  0
 15 14  1  1
 15 16  1  0
 16 17  1  0
 17 18  1  0
 18 19  1  0
 19 20  1  0
 20 21  1  1
 13 22  1  0
 22 23  2  0
 10 24  1  0
 24 25  2  0
 25 26  1  0
 26 27  2  0
 27 28  1  0
  6 29  1  0
 29 30  2  0
 30 31  1  0
 31 32  2  0
 32  2  1  0
 32  5  1  0
 28  7  1  0
 27  9  1  0
 23 11  1  0
 20 15  1  0
M  END
>  <Compound_ID>  (181) 
CHEMBL4740065

>  <Molecule Name>  (181) 
nan

>  <Molecular Weight>  (181) 
428.5

>  <AlogP>  (181) 
2.83

>  <Smiles>  (181) 
Cn1ccc2c(-c3nc4c(-n5cc(N[C@@H]6CCOC[C@@H]6N)cn5)ccnc4[nH]3)cccc21

>  <Standard Type>  (181) 
IC50

>  <Standard Relation>  (181) 
'='

>  <Standard Units>  (181) 
nM

>  <Standard Value>  (181) 
0.21

>  <Assay ChEMBL ID>  (181) 
CHEMBL4701487

>  <Assay Description>  (181) 
Inhibition of SYK (unknown origin)

>  <BAO Format ID>  (181) 
BAO_0000357

>  <BAO Label>  (181) 
single protein format

>  <Assay Organism>  (181) 
Homo sapiens

>  <Target ChEMBL ID>  (181) 
CHEMBL2599

>  <Target Name>  (181) 
Tyrosine-protein kinase SYK

>  <Target Organism>  (181) 
Homo sapiens

>  <Target Type>  (181) 
SINGLE PROTEIN

>  <Document ChEMBL ID>  (181) 
CHEMBL4699472

>  <Source Description>  (181) 
Scientific Literature

>  <Document Journal>  (181) 
Bioorg Med Chem Lett

>  <Document Year>  (181) 
2020.0

>  <Active>  (181) 
1.0

>  <bits>  (181) 
<rdkit.DataStructs.cDataStructs.ExplicitBitVect object at 0x00000193F3407610>

>  <Group>  (181) 
G2

$$$$

     RDKit          2D

 29 32  0  0  0  0  0  0  0  0999 V2000
    3.0000    0.0000    0.0000 C   0  0  0  0  0  0  0  0  0  0  0  0
    1.5000    0.0000    0.0000 C   0  0  0  0  0  0  0  0  0  0  0  0
    0.7500   -1.2990    0.0000 C   0  0  0  0  0  0  0  0  0  0  0  0
   -0.7500   -1.2990    0.0000 C   0  0  0  0  0  0  0  0  0  0  0  0
   -1.5000   -2.5981    0.0000 N   0  0  0  0  0  0  0  0  0  0  0  0
   -3.0000   -2.5981    0.0000 C   0  0  0  0  0  0  0  0  0  0  0  0
   -3.7500   -1.2990    0.0000 N   0  0  0  0  0  0  0  0  0  0  0  0
   -5.2500   -1.2990    0.0000 C   0  0  0  0  0  0  0  0  0  0  0  0
   -6.0000   -2.5981    0.0000 C   0  0  0  0  0  0  0  0  0  0  0  0
   -5.2500   -3.8971    0.0000 C   0  0  0  0  0  0  0  0  0  0  0  0
   -6.0000   -5.1962    0.0000 C   0  0  0  0  0  0  0  0  0  0  0  0
   -6.7500   -6.4952    0.0000 F   0  0  0  0  0  0  0  0  0  0  0  0
   -7.2990   -4.4462    0.0000 F   0  0  0  0  0  0  0  0  0  0  0  0
   -4.7010   -5.9462    0.0000 F   0  0  0  0  0  0  0  0  0  0  0  0
   -3.7500   -3.8971    0.0000 N   0  0  0  0  0  0  0  0  0  0  0  0
   -1.5000    0.0000    0.0000 C   0  0  0  0  0  0  0  0  0  0  0  0
   -0.7500    1.2990    0.0000 C   0  0  0  0  0  0  0  0  0  0  0  0
   -1.5000    2.5981    0.0000 C   0  0  0  0  0  0  0  0  0  0  0  0
   -0.7500    3.8971    0.0000 C   0  0  0  0  0  0  0  0  0  0  0  0
   -1.5000    5.1962    0.0000 C   0  0  0  0  0  0  0  0  0  0  0  0
   -3.0000    5.1962    0.0000 C   0  0  0  0  0  0  0  0  0  0  0  0
   -3.7500    3.8971    0.0000 C   0  0  0  0  0  0  0  0  0  0  0  0
   -5.2500    3.8971    0.0000 C   0  0  0  0  0  0  0  0  0  0  0  0
   -6.1317    2.6836    0.0000 N   0  0  0  0  0  0  0  0  0  0  0  0
   -7.5583    3.1471    0.0000 N   0  0  0  0  0  0  0  0  0  0  0  0
   -7.5583    4.6471    0.0000 N   0  0  0  0  0  0  0  0  0  0  0  0
   -6.1317    5.1106    0.0000 N   0  0  0  0  0  0  0  0  0  0  0  0
   -3.0000    2.5981    0.0000 C   0  0  0  0  0  0  0  0  0  0  0  0
    0.7500    1.2990    0.0000 C   0  0  0  0  0  0  0  0  0  0  0  0
  1  2  1  0
  2  3  2  0
  3  4  1  0
  4  5  1  0
  5  6  1  0
  6  7  2  0
  7  8  1  0
  8  9  2  0
  9 10  1  0
 10 11  1  0
 11 12  1  0
 11 13  1  0
 11 14  1  0
 10 15  2  0
  4 16  2  0
 16 17  1  0
 17 18  1  0
 18 19  2  0
 19 20  1  0
 20 21  2  0
 21 22  1  0
 22 23  1  0
 23 24  2  0
 24 25  1  0
 25 26  2  0
 26 27  1  0
 22 28  2  0
 17 29  2  0
 29  2  1  0
 15  6  1  0
 28 18  1  0
 27 23  1  0
M  END
>  <Compound_ID>  (182) 
CHEMBL3941693

>  <Molecule Name>  (182) 
nan

>  <Molecular Weight>  (182) 
397.36

>  <AlogP>  (182) 
4.39

>  <Smiles>  (182) 
Cc1cc(Nc2nccc(C(F)(F)F)n2)cc(-c2cccc(-c3nnn[nH]3)c2)c1

>  <Standard Type>  (182) 
IC50

>  <Standard Relation>  (182) 
'='

>  <Standard Units>  (182) 
nM

>  <Standard Value>  (182) 
18.7

>  <Assay ChEMBL ID>  (182) 
CHEMBL3888530

>  <Assay Description>  (182) 
Homogeneous Time-Resolved Fluorescence (HTRF) Assay: A recombinant GST-hSYK fusion protein was used to measure potency of compounds to inhibit human Syk activity. The recombinant human GST-SYK (Carna Biosciences #08-176) (5 μM final concentration) was incubated with various concentrations of the inhibitor diluted in DMSO (0.1% final concentration) for 10 minutes at room temperature in 15 mM Tris-HCl (pH 7.5), 0.01% tween 20, 2 mM DTT in 384 well plate format. To initiate the reaction the biotinylated substrate peptide (250 nM final concentration) that contains the phosphorylation site for Syk was added with magnesium (5 mM final concentration) and ATP (25 μM final concentration). Final volume of the reaction was 10 μL. Phosphorylation of the peptide was allowed to proceed for 45' at room temperature. To quench the reaction and detect the phosphorylated product, 2 nM of a Europium-anti-phosphotyrosine antibody (Perkin Elmer #AD0161) and 70 nM SA-APC (Perkin-Elmer #CR130-100) were added together in 15 mM Tris pH 7.5, 40 mM EDTA, 0.01% tween 20. Final volume of the quenching solution was 10 μL. The resulting HTRF signal was measured after 30 minutes on an EnVision (Perkin-Elmer) reader using a time-resolved fluorescence protocol.

>  <BAO Format ID>  (182) 
BAO_0000357

>  <BAO Label>  (182) 
single protein format

>  <Assay Organism>  (182) 
Homo sapiens

>  <Target ChEMBL ID>  (182) 
CHEMBL2599

>  <Target Name>  (182) 
Tyrosine-protein kinase SYK

>  <Target Organism>  (182) 
Homo sapiens

>  <Target Type>  (182) 
SINGLE PROTEIN

>  <Document ChEMBL ID>  (182) 
CHEMBL3886750

>  <Source Description>  (182) 
BindingDB Database

>  <Document Journal>  (182) 
nan

>  <Document Year>  (182) 
2016.0

>  <Active>  (182) 
1.0

>  <bits>  (182) 
<rdkit.DataStructs.cDataStructs.ExplicitBitVect object at 0x00000193F3404970>

>  <Group>  (182) 
G2

$$$$

     RDKit          2D

 36 40  0  0  0  0  0  0  0  0999 V2000
   -6.5218   -6.8278    0.0000 C   0  0  0  0  0  0  0  0  0  0  0  0
   -5.3083   -5.9462    0.0000 C   0  0  0  0  0  0  0  0  0  0  0  0
   -3.8817   -6.4097    0.0000 N   0  0  0  0  0  0  0  0  0  0  0  0
   -3.0000   -5.1962    0.0000 N   0  0  0  0  0  0  0  0  0  0  0  0
   -1.5000   -5.1962    0.0000 C   0  0  0  0  0  0  0  0  0  0  0  0
   -0.7500   -6.4952    0.0000 C   0  0  0  0  0  0  0  0  0  0  0  0
    0.7500   -6.4952    0.0000 C   0  0  0  0  0  0  0  0  0  0  0  0
    1.5000   -5.1962    0.0000 C   0  0  0  0  0  0  0  0  0  0  0  0
    0.7500   -3.8971    0.0000 C   0  0  0  0  0  0  0  0  0  0  0  0
    1.5000   -2.5981    0.0000 N   0  0  0  0  0  0  0  0  0  0  0  0
    0.7500   -1.2990    0.0000 C   0  0  0  0  0  0  0  0  0  0  0  0
    1.5000    0.0000    0.0000 C   0  0  0  0  0  0  0  0  0  0  0  0
    0.7500    1.2990    0.0000 C   0  0  0  0  0  0  0  0  0  0  0  0
   -0.7500    1.2990    0.0000 C   0  0  0  0  0  0  0  0  0  0  0  0
   -1.5000    0.0000    0.0000 C   0  0  0  0  0  0  0  0  0  0  0  0
   -0.7500   -1.2990    0.0000 C   0  0  0  0  0  0  0  0  0  0  0  0
   -2.9672    0.3119    0.0000 C   0  0  0  0  0  0  0  0  0  0  0  0
   -4.0819   -0.6918    0.0000 C   0  0  0  0  0  0  0  0  0  0  0  0
   -3.7701   -2.1590    0.0000 O   0  0  0  0  0  0  0  0  0  0  0  0
   -5.5085   -0.2283    0.0000 C   0  0  0  0  0  0  0  0  0  0  0  0
   -6.9351    0.2352    0.0000 F   0  0  0  0  0  0  0  0  0  0  0  0
   -5.9720   -1.6549    0.0000 F   0  0  0  0  0  0  0  0  0  0  0  0
   -5.0450    1.1983    0.0000 F   0  0  0  0  0  0  0  0  0  0  0  0
   -3.1240    1.8037    0.0000 C   0  0  0  0  0  0  0  0  0  0  0  0
   -1.7537    2.4138    0.0000 N   0  0  0  0  0  0  0  0  0  0  0  0
   -1.4418    3.8810    0.0000 C   0  0  0  0  0  0  0  0  0  0  0  0
   -0.7500   -3.8971    0.0000 N   0  0  0  0  0  0  0  0  0  0  0  0
   -3.8817   -3.9826    0.0000 C   0  0  0  0  0  0  0  0  0  0  0  0
   -5.3083   -4.4462    0.0000 C   0  0  0  0  0  0  0  0  0  0  0  0
   -6.5218   -3.5645    0.0000 C   0  0  0  0  0  0  0  0  0  0  0  0
   -7.8921   -4.1746    0.0000 N   0  0  0  0  0  0  0  0  0  0  0  0
   -8.2040   -5.6418    0.0000 C   0  0  0  0  0  0  0  0  0  0  0  0
   -9.6958   -5.7986    0.0000 C   0  0  0  0  0  0  0  0  0  0  0  0
  -10.3059   -4.4283    0.0000 C   0  0  0  0  0  0  0  0  0  0  0  0
  -11.7731   -4.1164    0.0000 O   0  0  0  0  0  0  0  0  0  0  0  0
   -9.1911   -3.4246    0.0000 C   0  0  0  0  0  0  0  0  0  0  0  0
  1  2  1  0
  2  3  2  0
  3  4  1  0
  4  5  1  0
  5  6  2  0
  6  7  1  0
  7  8  2  0
  8  9  1  0
  9 10  1  0
 10 11  1  0
 11 12  2  0
 12 13  1  0
 13 14  2  0
 14 15  1  0
 15 16  2  0
 15 17  1  0
 17 18  1  0
 18 19  2  0
 18 20  1  0
 20 21  1  0
 20 22  1  0
 20 23  1  0
 17 24  2  0
 24 25  1  0
 25 26  1  0
  9 27  2  0
  4 28  1  0
 28 29  2  0
 29 30  1  0
 30 31  1  0
 31 32  1  0
 32 33  1  0
 33 34  1  0
 34 35  1  1
 34 36  1  0
 29  2  1  0
 36 31  1  0
 27  5  1  0
 16 11  1  0
 25 14  1  0
M  END
>  <Compound_ID>  (183) 
CHEMBL3657551

>  <Molecule Name>  (183) 
nan

>  <Molecular Weight>  (183) 
498.51

>  <AlogP>  (183) 
4.12

>  <Smiles>  (183) 
Cc1nn(-c2cccc(Nc3ccc4c(c3)c(C(=O)C(F)(F)F)cn4C)n2)cc1CN1CC[C@@H](O)C1

>  <Standard Type>  (183) 
IC50

>  <Standard Relation>  (183) 
'='

>  <Standard Units>  (183) 
nM

>  <Standard Value>  (183) 
0.1

>  <Assay ChEMBL ID>  (183) 
CHEMBL3705866

>  <Assay Description>  (183) 
Kinase Inhibition Assay: Compounds of the invention were initially diluted to 10 mM in 100% DMSO (CALBIOCHEM) for storage and made into kinase buffer solution to create a compound concentration ranging from 1 uM and 10 uM. Serial dilutions of compounds of the invention were dispensed into a 96-well plate (GREINER BIOSCIENCES) at 6 uL each. Purified full-length human SYK, and KDR (CARNA BIOSCIENCES) were diluted in kinase buffer and added to the compound solutions and pre-incubated for 30 minutes at room temperature. Next, ATP (TEKNOVA) of Km (15 uM) and substrate solution (suggested manufacture substrates of PerkinElmer, for example, Ulight-TK peptide for SYK and Ulight-JAK1 for KDR (PERKINELMER)) was added (12 uL each) to the wells containing the compound solution and enzyme. The reaction mixture was incubated for 1 hour. Following the incubation, the stop solution made with EDTA, water, and Lance detection buffer (PERKINELMER) was added (12 uL each) to stop phosphorylation.

>  <BAO Format ID>  (183) 
BAO_0000357

>  <BAO Label>  (183) 
single protein format

>  <Assay Organism>  (183) 
Homo sapiens

>  <Target ChEMBL ID>  (183) 
CHEMBL2599

>  <Target Name>  (183) 
Tyrosine-protein kinase SYK

>  <Target Organism>  (183) 
Homo sapiens

>  <Target Type>  (183) 
SINGLE PROTEIN

>  <Document ChEMBL ID>  (183) 
CHEMBL3638941

>  <Source Description>  (183) 
BindingDB Database

>  <Document Journal>  (183) 
nan

>  <Document Year>  (183) 
2014.0

>  <Active>  (183) 
1.0

>  <bits>  (183) 
<rdkit.DataStructs.cDataStructs.ExplicitBitVect object at 0x00000193F3404F90>

>  <Group>  (183) 
G2

$$$$

     RDKit          2D

 30 33  0  0  0  0  0  0  0  0999 V2000
   -4.3786   -5.1199    0.0000 C   0  0  0  0  0  0  0  0  0  0  0  0
   -2.9520   -4.6564    0.0000 N   0  0  0  0  0  0  0  0  0  0  0  0
   -2.6401   -3.1891    0.0000 C   0  0  0  0  0  0  0  0  0  0  0  0
   -3.7548   -2.1855    0.0000 O   0  0  0  0  0  0  0  0  0  0  0  0
   -1.2135   -2.7256    0.0000 C   0  0  0  0  0  0  0  0  0  0  0  0
   -0.0000   -3.6073    0.0000 N   0  0  0  0  0  0  0  0  0  0  0  0
    1.2135   -2.7256    0.0000 C   0  0  0  0  0  0  0  0  0  0  0  0
    2.6401   -3.1891    0.0000 C   0  0  0  0  0  0  0  0  0  0  0  0
    0.7500   -1.2990    0.0000 N   0  0  0  0  0  0  0  0  0  0  0  0
    1.5000    0.0000    0.0000 C   0  0  0  0  0  0  0  0  0  0  0  0
    0.7500    1.2990    0.0000 C   0  0  0  0  0  0  0  0  0  0  0  0
   -0.7500    1.2990    0.0000 C   0  0  0  0  0  0  0  0  0  0  0  0
   -1.5000    2.5981    0.0000 N   0  0  0  0  0  0  0  0  0  0  0  0
   -0.7500    3.8971    0.0000 C   0  0  0  0  0  0  0  0  0  0  0  0
    0.7500    3.8971    0.0000 N   0  0  0  0  0  0  0  0  0  0  0  0
    1.5000    5.1962    0.0000 C   0  0  0  0  0  0  0  0  0  0  0  0
    0.7500    6.4952    0.0000 C   0  0  0  0  0  0  0  0  0  0  0  0
   -0.7500    6.4952    0.0000 C   0  0  0  0  0  0  0  0  0  0  0  0
   -1.5000    7.7942    0.0000 N   0  0  0  0  0  0  0  0  0  0  0  0
   -2.9918    7.9510    0.0000 C   0  0  0  0  0  0  0  0  0  0  0  0
   -3.3037    9.4182    0.0000 C   0  0  0  0  0  0  0  0  0  0  0  0
   -4.6740   10.0283    0.0000 C   0  0  0  0  0  0  0  0  0  0  0  0
   -4.8308   11.5201    0.0000 N   0  0  0  0  0  0  0  0  0  0  0  0
   -6.2011   12.1302    0.0000 C   0  0  0  0  0  0  0  0  0  0  0  0
   -3.6172   12.4018    0.0000 C   0  0  0  0  0  0  0  0  0  0  0  0
   -2.0046   10.1682    0.0000 C   0  0  0  0  0  0  0  0  0  0  0  0
   -0.8899    9.1645    0.0000 N   0  0  0  0  0  0  0  0  0  0  0  0
   -1.5000    5.1962    0.0000 N   0  0  0  0  0  0  0  0  0  0  0  0
   -1.5000    0.0000    0.0000 C   0  0  0  0  0  0  0  0  0  0  0  0
   -0.7500   -1.2990    0.0000 C   0  0  0  0  0  0  0  0  0  0  0  0
  1  2  1  0
  2  3  1  0
  3  4  2  0
  3  5  1  0
  5  6  1  0
  6  7  2  0
  7  8  1  0
  7  9  1  0
  9 10  1  0
 10 11  2  0
 11 12  1  0
 12 13  1  0
 13 14  1  0
 14 15  2  0
 15 16  1  0
 16 17  2  0
 17 18  1  0
 18 19  1  0
 19 20  1  0
 20 21  2  0
 21 22  1  0
 22 23  1  0
 23 24  1  0
 23 25  1  0
 21 26  1  0
 26 27  2  0
 18 28  2  0
 12 29  2  0
 29 30  1  0
 30  5  2  0
 30  9  1  0
 28 14  1  0
 27 19  1  0
M  END
>  <Compound_ID>  (184) 
CHEMBL4800498

>  <Molecule Name>  (184) 
nan

>  <Molecular Weight>  (184) 
405.47

>  <AlogP>  (184) 
1.78

>  <Smiles>  (184) 
CNC(=O)c1nc(C)n2ccc(Nc3nccc(-n4cc(CN(C)C)cn4)n3)cc12

>  <Standard Type>  (184) 
IC50

>  <Standard Relation>  (184) 
'='

>  <Standard Units>  (184) 
nM

>  <Standard Value>  (184) 
0.24

>  <Assay ChEMBL ID>  (184) 
CHEMBL4701487

>  <Assay Description>  (184) 
Inhibition of SYK (unknown origin)

>  <BAO Format ID>  (184) 
BAO_0000357

>  <BAO Label>  (184) 
single protein format

>  <Assay Organism>  (184) 
Homo sapiens

>  <Target ChEMBL ID>  (184) 
CHEMBL2599

>  <Target Name>  (184) 
Tyrosine-protein kinase SYK

>  <Target Organism>  (184) 
Homo sapiens

>  <Target Type>  (184) 
SINGLE PROTEIN

>  <Document ChEMBL ID>  (184) 
CHEMBL4699472

>  <Source Description>  (184) 
Scientific Literature

>  <Document Journal>  (184) 
Bioorg Med Chem Lett

>  <Document Year>  (184) 
2020.0

>  <Active>  (184) 
1.0

>  <bits>  (184) 
<rdkit.DataStructs.cDataStructs.ExplicitBitVect object at 0x00000193F3405070>

>  <Group>  (184) 
G2

$$$$

     RDKit          2D

 35 39  0  0  0  0  0  0  0  0999 V2000
   -1.2990   -7.3573    0.0000 C   0  0  0  0  0  0  0  0  0  0  0  0
   -1.2990   -5.8573    0.0000 N   0  0  0  0  0  0  0  0  0  0  0  0
   -2.5981   -5.1073    0.0000 C   0  0  0  0  0  0  0  0  0  0  0  0
   -0.0000   -5.1073    0.0000 C   0  0  0  0  0  0  0  0  0  0  0  0
    1.2990   -5.8573    0.0000 O   0  0  0  0  0  0  0  0  0  0  0  0
   -0.0000   -3.6073    0.0000 C   0  0  0  0  0  0  0  0  0  0  0  0
    1.2135   -2.7256    0.0000 C   0  0  0  0  0  0  0  0  0  0  0  0
    0.7500   -1.2990    0.0000 C   0  0  0  0  0  0  0  0  0  0  0  0
    1.5000    0.0000    0.0000 C   0  0  0  0  0  0  0  0  0  0  0  0
    0.7500    1.2990    0.0000 C   0  0  0  0  0  0  0  0  0  0  0  0
    1.5000    2.5981    0.0000 N   0  0  0  0  0  0  0  0  0  0  0  0
    3.0000    2.5981    0.0000 C   0  0  0  0  0  0  0  0  0  0  0  0
    3.7500    1.2990    0.0000 N   0  0  0  0  0  0  0  0  0  0  0  0
    5.2500    1.2990    0.0000 C   0  0  0  0  0  0  0  0  0  0  0  0
    6.0000    2.5981    0.0000 C   0  0  0  0  0  0  0  0  0  0  0  0
    5.2500    3.8971    0.0000 C   0  0  0  0  0  0  0  0  0  0  0  0
    6.0000    5.1962    0.0000 C   0  0  0  0  0  0  0  0  0  0  0  0
    7.5000    5.1962    0.0000 C   0  0  0  0  0  0  0  0  0  0  0  0
    8.2500    6.4952    0.0000 C   0  0  0  0  0  0  0  0  0  0  0  0
    9.7500    6.4952    0.0000 O   0  0  0  0  0  0  0  0  0  0  0  0
   10.5000    5.1962    0.0000 C   0  0  0  0  0  0  0  0  0  0  0  0
   12.0000    5.1962    0.0000 C   0  0  0  0  0  0  0  0  0  0  0  0
   12.8817    6.4097    0.0000 C   0  0  0  0  0  0  0  0  0  0  0  0
   14.3083    5.9462    0.0000 N   0  0  0  0  0  0  0  0  0  0  0  0
   14.3083    4.4462    0.0000 C   0  0  0  0  0  0  0  0  0  0  0  0
   15.5218    3.5645    0.0000 O   0  0  0  0  0  0  0  0  0  0  0  0
   12.8817    3.9826    0.0000 C   0  0  0  0  0  0  0  0  0  0  0  0
    7.5000    7.7942    0.0000 C   0  0  0  0  0  0  0  0  0  0  0  0
    6.0000    7.7942    0.0000 C   0  0  0  0  0  0  0  0  0  0  0  0
    5.2500    6.4952    0.0000 N   0  0  0  0  0  0  0  0  0  0  0  0
    3.7500    3.8971    0.0000 N   0  0  0  0  0  0  0  0  0  0  0  0
   -0.7500    1.2990    0.0000 C   0  0  0  0  0  0  0  0  0  0  0  0
   -1.5000    0.0000    0.0000 C   0  0  0  0  0  0  0  0  0  0  0  0
   -0.7500   -1.2990    0.0000 C   0  0  0  0  0  0  0  0  0  0  0  0
   -1.2135   -2.7256    0.0000 N   0  0  0  0  0  0  0  0  0  0  0  0
  1  2  1  0
  2  3  1  0
  2  4  1  0
  4  5  2  0
  4  6  1  0
  6  7  2  0
  7  8  1  0
  8  9  2  0
  9 10  1  0
 10 11  1  0
 11 12  1  0
 12 13  2  0
 13 14  1  0
 14 15  2  0
 15 16  1  0
 16 17  1  0
 17 18  2  0
 18 19  1  0
 19 20  1  0
 20 21  1  0
 21 22  1  0
 22 23  1  0
 23 24  1  0
 24 25  1  0
 25 26  2  0
 25 27  1  0
 19 28  2  0
 28 29  1  0
 29 30  2  0
 16 31  2  0
 10 32  2  0
 32 33  1  0
 33 34  2  0
 34 35  1  0
 35  6  1  0
 34  8  1  0
 31 12  1  0
 30 17  1  0
 27 22  1  0
M  END
>  <Compound_ID>  (185) 
CHEMBL3643757

>  <Molecule Name>  (185) 
nan

>  <Molecular Weight>  (185) 
471.52

>  <AlogP>  (185) 
2.98

>  <Smiles>  (185) 
CN(C)C(=O)c1cc2cc(Nc3nccc(-c4cc(OCC5CNC(=O)C5)ccn4)n3)ccc2[nH]1

>  <Standard Type>  (185) 
IC50

>  <Standard Relation>  (185) 
'='

>  <Standard Units>  (185) 
nM

>  <Standard Value>  (185) 
33.1

>  <Assay ChEMBL ID>  (185) 
CHEMBL3705803

>  <Assay Description>  (185) 
Kinase Glo Luminescence Kinase Assay: Recombinant human Syk (amino acids 342-635) was expressed as a fusion protein with an N-terminal GST tag, affinity-purified and deep-frozen at a concentration of approx. 50-100 uM in test buffer (25 mM HEPES pH7.5; 25 mM MgCl2; 5 mM MnCl2; 50 mM KCl; 0.2% BSA; 0.01% CHAPS; 100 uM Na3VO4; 0.5 mM DTT) and 10% glycerol at -80 C until use. The catalytic activity of the GST-Syk kinase fusion protein was determined using the Kinase Glo Luminescence Kinase test (Promega; V6712). In this homogeneous test the amount of ATP remaining after the kinase reaction is quantified by a luciferin-luciferase reaction using luminescence. The luminescence signal obtained correlates with the amount of ATP still present and thus correlates inversely with the activity of the protein kinase. The test compounds were dissolved in 100% DMSO at a concentration of 10 mM and diluted in DMSO to a concentration of 1 mM.

>  <BAO Format ID>  (185) 
BAO_0000357

>  <BAO Label>  (185) 
single protein format

>  <Assay Organism>  (185) 
Homo sapiens

>  <Target ChEMBL ID>  (185) 
CHEMBL2599

>  <Target Name>  (185) 
Tyrosine-protein kinase SYK

>  <Target Organism>  (185) 
Homo sapiens

>  <Target Type>  (185) 
SINGLE PROTEIN

>  <Document ChEMBL ID>  (185) 
CHEMBL3638486

>  <Source Description>  (185) 
BindingDB Database

>  <Document Journal>  (185) 
nan

>  <Document Year>  (185) 
2014.0

>  <Active>  (185) 
1.0

>  <bits>  (185) 
<rdkit.DataStructs.cDataStructs.ExplicitBitVect object at 0x00000193F3405D20>

>  <Group>  (185) 
G2

$$$$

     RDKit          2D

 38 42  0  0  0  0  0  0  0  0999 V2000
    3.0000    0.0000    0.0000 C   0  0  0  0  0  0  0  0  0  0  0  0
    1.5000    0.0000    0.0000 C   0  0  0  0  0  0  0  0  0  0  0  0
    0.7500   -1.2990    0.0000 C   0  0  0  0  0  0  0  0  0  0  0  0
   -0.7500   -1.2990    0.0000 C   0  0  0  0  0  0  0  0  0  0  0  0
   -1.5000   -2.5981    0.0000 N   0  0  0  0  0  0  0  0  0  0  0  0
   -3.0000   -2.5981    0.0000 C   0  0  0  0  0  0  0  0  0  0  0  0
   -3.7500   -1.2990    0.0000 N   0  0  0  0  0  0  0  0  0  0  0  0
   -5.2500   -1.2990    0.0000 C   0  0  0  0  0  0  0  0  0  0  0  0
   -6.0000   -2.5981    0.0000 C   0  0  0  0  0  0  0  0  0  0  0  0
   -5.2500   -3.8971    0.0000 C   0  0  0  0  0  0  0  0  0  0  0  0
   -6.0000   -5.1962    0.0000 C   0  0  0  0  0  0  0  0  0  0  0  0
   -6.7500   -6.4952    0.0000 F   0  0  0  0  0  0  0  0  0  0  0  0
   -7.2990   -4.4462    0.0000 F   0  0  0  0  0  0  0  0  0  0  0  0
   -4.7010   -5.9462    0.0000 F   0  0  0  0  0  0  0  0  0  0  0  0
   -3.7500   -3.8971    0.0000 N   0  0  0  0  0  0  0  0  0  0  0  0
   -1.5000    0.0000    0.0000 C   0  0  0  0  0  0  0  0  0  0  0  0
   -0.7500    1.2990    0.0000 C   0  0  0  0  0  0  0  0  0  0  0  0
   -1.5000    2.5981    0.0000 C   0  0  0  0  0  0  0  0  0  0  0  0
   -2.9918    2.7549    0.0000 C   0  0  0  0  0  0  0  0  0  0  0  0
   -3.3037    4.2221    0.0000 N   0  0  0  0  0  0  0  0  0  0  0  0
   -2.0046    4.9721    0.0000 C   0  0  0  0  0  0  0  0  0  0  0  0
   -1.8478    6.4639    0.0000 C   0  0  0  0  0  0  0  0  0  0  0  0
   -0.3560    6.3071    0.0000 C   0  0  0  0  0  0  0  0  0  0  0  0
   -1.6910    7.9557    0.0000 O   0  0  0  0  0  0  0  0  0  0  0  0
   -3.3396    6.6207    0.0000 C   0  0  0  0  0  0  0  0  0  0  0  0
   -2.9261    8.0626    0.0000 O   0  0  0  0  0  0  0  0  0  0  0  0
   -3.2350    5.1243    0.0000 C   0  0  0  0  0  0  0  0  0  0  0  0
   -4.4785    4.2855    0.0000 C   0  0  0  0  0  0  0  0  0  0  0  0
   -5.8267    4.9431    0.0000 C   0  0  0  0  0  0  0  0  0  0  0  0
   -7.0703    4.1043    0.0000 C   0  0  0  0  0  0  0  0  0  0  0  0
   -7.1226    2.6052    0.0000 N   0  0  0  0  0  0  0  0  0  0  0  0
   -8.5645    2.1918    0.0000 N   0  0  0  0  0  0  0  0  0  0  0  0
   -9.4033    3.4353    0.0000 N   0  0  0  0  0  0  0  0  0  0  0  0
   -8.4798    4.6173    0.0000 N   0  0  0  0  0  0  0  0  0  0  0  0
   -5.9313    6.4394    0.0000 C   0  0  0  0  0  0  0  0  0  0  0  0
   -4.6878    7.2782    0.0000 C   0  0  0  0  0  0  0  0  0  0  0  0
   -0.8899    3.9684    0.0000 S   0  0  0  0  0  0  0  0  0  0  0  0
    0.7500    1.2990    0.0000 C   0  0  0  0  0  0  0  0  0  0  0  0
  1  2  1  0
  2  3  2  0
  3  4  1  0
  4  5  1  0
  5  6  1  0
  6  7  2  0
  7  8  1  0
  8  9  2  0
  9 10  1  0
 10 11  1  0
 11 12  1  0
 11 13  1  0
 11 14  1  0
 10 15  2  0
  4 16  2  0
 16 17  1  0
 17 18  1  0
 18 19  2  0
 19 20  1  0
 20 21  2  0
 21 22  1  0
 22 23  1  1
 22 24  1  0
 22 25  1  0
 25 26  1  1
 25 27  1  0
 27 28  1  0
 28 29  1  0
 29 30  1  1
 30 31  1  0
 31 32  2  0
 32 33  1  0
 33 34  1  0
 29 35  1  0
 35 36  1  0
 21 37  1  0
 17 38  2  0
 38  2  1  0
 15  6  1  0
 37 18  1  0
 36 25  1  0
 34 30  2  0
M  END
>  <Compound_ID>  (186) 
CHEMBL4109519

>  <Molecule Name>  (186) 
nan

>  <Molecular Weight>  (186) 
546.58

>  <AlogP>  (186) 
4.48

>  <Smiles>  (186) 
Cc1cc(Nc2nccc(C(F)(F)F)n2)cc(-c2cnc([C@@](C)(O)[C@]3(O)CC[C@@H](c4nn[nH]n4)CC3)s2)c1

>  <Standard Type>  (186) 
IC50

>  <Standard Relation>  (186) 
'='

>  <Standard Units>  (186) 
nM

>  <Standard Value>  (186) 
5.0

>  <Assay ChEMBL ID>  (186) 
CHEMBL3888105

>  <Assay Description>  (186) 
Homogeneous Time-Resolved Fluorescence (HTRF) Assay: A recombinant GST-hSyk fusion protein was used to measure potency of compounds to inhibit human Syk activity. The recombinant human GST-Syk (Carna Biosciences #08-176) (5 pM final concentration) was incubated with various concentrations of the inhibitor diluted in DMSO (0.1% final concentration) for 10 minutes at room temperature in 15 mM Tris-HCl (pH 7.5), 0.01% tween 20, 2 mM DTT in 384 well plate format. To initiate the reaction the biotinylated substrate peptide (250 nM final concentration) that contains the phosphorylation site for Syk was added with magnesium (5 mM final concentration) and ATP (25 μM final concentration). Final volume of the reaction was 10 μL. Phosphorylation of the peptide was allowed to proceed for 45′ at room temperature. To quench the reaction and detect the phosphorylated product, 2 nM of a Europium-anti-phosphotyrosine antibody (Perkin Elmer #AD0161) and 70 nM SA-APC (Perkin-Elmer #CR130-100) were added together in 15 mM Tris pH 7.5, 40 mM

>  <BAO Format ID>  (186) 
BAO_0000357

>  <BAO Label>  (186) 
single protein format

>  <Assay Organism>  (186) 
Homo sapiens

>  <Target ChEMBL ID>  (186) 
CHEMBL2599

>  <Target Name>  (186) 
Tyrosine-protein kinase SYK

>  <Target Organism>  (186) 
Homo sapiens

>  <Target Type>  (186) 
SINGLE PROTEIN

>  <Document ChEMBL ID>  (186) 
CHEMBL3886579

>  <Source Description>  (186) 
BindingDB Database

>  <Document Journal>  (186) 
nan

>  <Document Year>  (186) 
2016.0

>  <Active>  (186) 
1.0

>  <bits>  (186) 
<rdkit.DataStructs.cDataStructs.ExplicitBitVect object at 0x00000193F3406650>

>  <Group>  (186) 
G2

$$$$

     RDKit          2D

 31 34  0  0  0  0  0  0  0  0999 V2000
    3.7500   -9.0933    0.0000 C   0  0  0  0  0  0  0  0  0  0  0  0
    3.0000   -7.7942    0.0000 C   0  0  0  0  0  0  0  0  0  0  0  0
    1.5000   -7.7942    0.0000 C   0  0  0  0  0  0  0  0  0  0  0  0
    0.7500   -9.0933    0.0000 O   0  0  0  0  0  0  0  0  0  0  0  0
    3.7500   -6.4952    0.0000 N   0  0  0  0  0  0  0  0  0  0  0  0
    3.0000   -5.1962    0.0000 C   0  0  0  0  0  0  0  0  0  0  0  0
    1.5000   -5.1962    0.0000 C   0  0  0  0  0  0  0  0  0  0  0  0
    0.7500   -3.8971    0.0000 C   0  0  0  0  0  0  0  0  0  0  0  0
    1.5000   -2.5981    0.0000 C   0  0  0  0  0  0  0  0  0  0  0  0
    0.7500   -1.2990    0.0000 C   0  0  0  0  0  0  0  0  0  0  0  0
    1.5000    0.0000    0.0000 C   0  0  0  0  0  0  0  0  0  0  0  0
    0.7500    1.2990    0.0000 C   0  0  0  0  0  0  0  0  0  0  0  0
    1.5000    2.5981    0.0000 N   0  0  0  0  0  0  0  0  0  0  0  0
    0.7500    3.8971    0.0000 C   0  0  0  0  0  0  0  0  0  0  0  0
   -0.7500    3.8971    0.0000 N   0  0  0  0  0  0  0  0  0  0  0  0
   -1.5000    5.1962    0.0000 C   0  0  0  0  0  0  0  0  0  0  0  0
   -1.5000    2.5981    0.0000 C   0  0  0  0  0  0  0  0  0  0  0  0
   -3.0000    2.5981    0.0000 O   0  0  0  0  0  0  0  0  0  0  0  0
   -0.7500    1.2990    0.0000 C   0  0  0  0  0  0  0  0  0  0  0  0
   -1.5000    0.0000    0.0000 C   0  0  0  0  0  0  0  0  0  0  0  0
   -3.0000    0.0000    0.0000 N   0  0  0  0  0  0  0  0  0  0  0  0
   -3.7500   -1.2990    0.0000 C   0  0  0  0  0  0  0  0  0  0  0  0
   -3.7500   -2.7990    0.0000 C   0  0  0  0  0  0  0  0  0  0  0  0
   -5.0490   -2.0490    0.0000 C   0  0  0  0  0  0  0  0  0  0  0  0
   -0.7500   -1.2990    0.0000 N   0  0  0  0  0  0  0  0  0  0  0  0
    3.0000   -2.5981    0.0000 C   0  0  0  0  0  0  0  0  0  0  0  0
    3.7500   -3.8971    0.0000 C   0  0  0  0  0  0  0  0  0  0  0  0
    5.2500   -3.8971    0.0000 S   0  0  0  0  0  0  0  0  0  0  0  0
    6.7500   -3.8971    0.0000 C   0  0  0  0  0  0  0  0  0  0  0  0
    5.2500   -5.3971    0.0000 O   0  0  0  0  0  0  0  0  0  0  0  0
    5.2500   -2.3971    0.0000 O   0  0  0  0  0  0  0  0  0  0  0  0
  2  1  1  6
  2  3  1  0
  3  4  1  0
  2  5  1  0
  5  6  1  0
  6  7  2  0
  7  8  1  0
  8  9  2  0
  9 10  1  0
 10 11  2  0
 11 12  1  0
 12 13  1  0
 13 14  2  0
 14 15  1  0
 15 16  1  0
 15 17  1  0
 17 18  2  0
 17 19  1  0
 19 20  1  0
 20 21  1  0
 21 22  1  0
 22 23  1  0
 23 24  1  0
 20 25  2  0
  9 26  1  0
 26 27  2  0
 27 28  1  0
 28 29  1  0
 28 30  2  0
 28 31  2  0
 27  6  1  0
 25 10  1  0
 19 12  2  0
 24 22  1  0
M  END
>  <Compound_ID>  (187) 
CHEMBL3701558

>  <Molecule Name>  (187) 
nan

>  <Molecular Weight>  (187) 
443.53

>  <AlogP>  (187) 
1.77

>  <Smiles>  (187) 
C[C@H](CO)Nc1ccc(-c2cc3ncn(C)c(=O)c3c(NC3CC3)n2)cc1S(C)(=O)=O

>  <Standard Type>  (187) 
IC50

>  <Standard Relation>  (187) 
'='

>  <Standard Units>  (187) 
nM

>  <Standard Value>  (187) 
97.0

>  <Assay ChEMBL ID>  (187) 
CHEMBL3705362

>  <Assay Description>  (187) 
Mobility-Shift kinase assay: Compounds of the examples provided herein were assessed for their ability to inhibit Syk kinase by utilizing Caliper Life Sciences' proprietary LabChip technology. The off-chip incubation mobility-shift kinase assay uses a microfluidic chip to measure the conversion of a fluorescent peptide substrate to a phosphorylated product. The reaction mixture, from a microtiter plate well, is introduced through a capillary sipper onto the chip, where the nonphosphorylated substrate and phosphorylated product are separated by electrophoresis and detected via laser induced fluorescence. The signature of the fluorescence signal over time reveals the extent of the reaction. The phosphorylated product migrates through the chip faster than the non-phosphorylated substrate, and signals from the two forms of the peptide appear as distinct peaks.

>  <BAO Format ID>  (187) 
BAO_0000357

>  <BAO Label>  (187) 
single protein format

>  <Assay Organism>  (187) 
Homo sapiens

>  <Target ChEMBL ID>  (187) 
CHEMBL2599

>  <Target Name>  (187) 
Tyrosine-protein kinase SYK

>  <Target Organism>  (187) 
Homo sapiens

>  <Target Type>  (187) 
SINGLE PROTEIN

>  <Document ChEMBL ID>  (187) 
CHEMBL3639055

>  <Source Description>  (187) 
BindingDB Database

>  <Document Journal>  (187) 
nan

>  <Document Year>  (187) 
2014.0

>  <Active>  (187) 
1.0

>  <bits>  (187) 
<rdkit.DataStructs.cDataStructs.ExplicitBitVect object at 0x00000193F34063B0>

>  <Group>  (187) 
G2

$$$$

     RDKit          2D

 28 31  0  0  0  0  0  0  0  0999 V2000
   -3.5736    1.2902    0.0000 C   0  0  0  0  0  0  0  0  0  0  0  0
   -2.1470    1.7537    0.0000 C   0  0  0  0  0  0  0  0  0  0  0  0
   -1.8351    3.2209    0.0000 C   0  0  0  0  0  0  0  0  0  0  0  0
   -0.4086    3.6844    0.0000 C   0  0  0  0  0  0  0  0  0  0  0  0
   -0.0967    5.1517    0.0000 N   0  0  0  0  0  0  0  0  0  0  0  0
    1.3299    5.6152    0.0000 C   0  0  0  0  0  0  0  0  0  0  0  0
    2.4446    4.6115    0.0000 N   0  0  0  0  0  0  0  0  0  0  0  0
    3.8712    5.0750    0.0000 C   0  0  0  0  0  0  0  0  0  0  0  0
    4.9859    4.0713    0.0000 N   0  0  0  0  0  0  0  0  0  0  0  0
    4.6741    2.6041    0.0000 C   0  0  0  0  0  0  0  0  0  0  0  0
    3.2475    2.1406    0.0000 C   0  0  0  0  0  0  0  0  0  0  0  0
    2.9356    0.6734    0.0000 C   0  0  0  0  0  0  0  0  0  0  0  0
    4.0503   -0.3303    0.0000 O   0  0  0  0  0  0  0  0  0  0  0  0
    5.4769    0.1332    0.0000 C   0  0  0  0  0  0  0  0  0  0  0  0
    5.7888    1.6004    0.0000 C   0  0  0  0  0  0  0  0  0  0  0  0
    7.2154    2.0639    0.0000 N   0  0  0  0  0  0  0  0  0  0  0  0
    4.1831    6.5422    0.0000 N   0  0  0  0  0  0  0  0  0  0  0  0
    3.0684    7.5459    0.0000 N   0  0  0  0  0  0  0  0  0  0  0  0
    1.6418    7.0824    0.0000 C   0  0  0  0  0  0  0  0  0  0  0  0
    0.5271    8.0861    0.0000 C   0  0  0  0  0  0  0  0  0  0  0  0
    0.8389    9.5533    0.0000 N   0  0  0  0  0  0  0  0  0  0  0  0
   -0.8995    7.6226    0.0000 O   0  0  0  0  0  0  0  0  0  0  0  0
    0.7062    2.6807    0.0000 C   0  0  0  0  0  0  0  0  0  0  0  0
    0.3943    1.2135    0.0000 C   0  0  0  0  0  0  0  0  0  0  0  0
    1.2760    0.0000    0.0000 C   0  0  0  0  0  0  0  0  0  0  0  0
    0.3943   -1.2135    0.0000 C   0  0  0  0  0  0  0  0  0  0  0  0
   -1.0323   -0.7500    0.0000 S   0  0  0  0  0  0  0  0  0  0  0  0
   -1.0323    0.7500    0.0000 C   0  0  0  0  0  0  0  0  0  0  0  0
  1  2  1  0
  2  3  2  0
  3  4  1  0
  4  5  1  0
  5  6  1  0
  6  7  2  0
  7  8  1  0
  8  9  1  0
 10  9  1  1
 10 11  1  0
 11 12  1  0
 12 13  1  0
 13 14  1  0
 14 15  1  0
 15 16  1  1
  8 17  2  0
 17 18  1  0
 18 19  2  0
 19 20  1  0
 20 21  1  0
 20 22  2  0
  4 23  2  0
 23 24  1  0
 24 25  1  0
 25 26  2  0
 26 27  1  0
 27 28  1  0
 28  2  1  0
 19  6  1  0
 28 24  2  0
 15 10  1  0
M  END
>  <Compound_ID>  (188) 
CHEMBL3891798

>  <Molecule Name>  (188) 
nan

>  <Molecular Weight>  (188) 
399.48

>  <AlogP>  (188) 
1.77

>  <Smiles>  (188) 
Cc1cc(Nc2nc(N[C@@H]3CCOC[C@@H]3N)nnc2C(N)=O)cc2ccsc12

>  <Standard Type>  (188) 
IC50

>  <Standard Relation>  (188) 
'='

>  <Standard Units>  (188) 
nM

>  <Standard Value>  (188) 
0.37

>  <Assay ChEMBL ID>  (188) 
CHEMBL3887308

>  <Assay Description>  (188) 
Syk Kinase Inhibition Assay: The in vitro inhibitory activity of the compound of the present invention against Syk kinase activity was assayed under the following conditions: the purified human Syk protein used in the test were purchased from Carna Biosciences, Inc. For the inhibitory activity assay on the compound, the compound of the present invention was first serially diluted with dimethyl sulfoxide (DMSO). Next, the purified human Syk protein FL-Peptide 22 (final concentration: 1 uM) (Caliper Life Sciences, Inc.), magnesium chloride (final concentration: 5 mM), ATP (final concentration: 30 uM), and each DMSO solution of the compound of the present invention (final concentration of DMSO: 5%) were added into a buffer solution for reaction (20 mM tris-HCl pH 7.5, 20 mM NaCl, 2.5 mM DTT, 0.02% Tween-20, 1% glycerol, 0.01 mM Pefabloc), and the mixture was then incubated at 25° C. for 30 minutes to perform kinase reaction. The kinase reaction was stopped by the addition thereto of EDTA.

>  <BAO Format ID>  (188) 
BAO_0000357

>  <BAO Label>  (188) 
single protein format

>  <Assay Organism>  (188) 
Homo sapiens

>  <Target ChEMBL ID>  (188) 
CHEMBL2599

>  <Target Name>  (188) 
Tyrosine-protein kinase SYK

>  <Target Organism>  (188) 
Homo sapiens

>  <Target Type>  (188) 
SINGLE PROTEIN

>  <Document ChEMBL ID>  (188) 
CHEMBL3886160

>  <Source Description>  (188) 
BindingDB Database

>  <Document Journal>  (188) 
nan

>  <Document Year>  (188) 
2015.0

>  <Active>  (188) 
1.0

>  <bits>  (188) 
<rdkit.DataStructs.cDataStructs.ExplicitBitVect object at 0x00000193F34040B0>

>  <Group>  (188) 
G2

$$$$

     RDKit          2D

 31 35  0  0  0  0  0  0  0  0999 V2000
    3.7500    1.2990    0.0000 N   0  0  0  0  0  0  0  0  0  0  0  0
    3.0000   -0.0000    0.0000 C   0  0  0  0  0  0  0  0  0  0  0  0
    1.5000   -0.0000    0.0000 O   0  0  0  0  0  0  0  0  0  0  0  0
    3.7500   -1.2990    0.0000 C   0  0  0  0  0  0  0  0  0  0  0  0
    5.2500   -1.2990    0.0000 N   0  0  0  0  0  0  0  0  0  0  0  0
    6.0000   -2.5981    0.0000 N   0  0  0  0  0  0  0  0  0  0  0  0
    5.2500   -3.8971    0.0000 C   0  0  0  0  0  0  0  0  0  0  0  0
    6.0000   -5.1962    0.0000 N   0  0  0  0  0  0  0  0  0  0  0  0
    5.2500   -6.4952    0.0000 C   0  0  0  0  0  0  0  0  0  0  0  0
    3.7500   -6.4952    0.0000 C   0  0  0  0  0  0  0  0  0  0  0  0
    3.0000   -7.7942    0.0000 C   0  0  0  0  0  0  0  0  0  0  0  0
    3.7500   -9.0933    0.0000 O   0  0  0  0  0  0  0  0  0  0  0  0
    5.2500   -9.0933    0.0000 C   0  0  0  0  0  0  0  0  0  0  0  0
    6.0000   -7.7942    0.0000 C   0  0  0  0  0  0  0  0  0  0  0  0
    7.5000   -7.7942    0.0000 N   0  0  0  0  0  0  0  0  0  0  0  0
    3.7500   -3.8971    0.0000 N   0  0  0  0  0  0  0  0  0  0  0  0
    3.0000   -2.5981    0.0000 C   0  0  0  0  0  0  0  0  0  0  0  0
    1.5000   -2.5981    0.0000 N   0  0  0  0  0  0  0  0  0  0  0  0
    0.7500   -3.8971    0.0000 C   0  0  0  0  0  0  0  0  0  0  0  0
    1.5000   -5.1962    0.0000 C   0  0  0  0  0  0  0  0  0  0  0  0
    0.7500   -6.4952    0.0000 C   0  0  0  0  0  0  0  0  0  0  0  0
   -0.7500   -6.4952    0.0000 C   0  0  0  0  0  0  0  0  0  0  0  0
   -1.5000   -5.1962    0.0000 C   0  0  0  0  0  0  0  0  0  0  0  0
   -0.7500   -3.8971    0.0000 C   0  0  0  0  0  0  0  0  0  0  0  0
   -1.7537   -2.7824    0.0000 C   0  0  0  0  0  0  0  0  0  0  0  0
   -3.1240   -3.3925    0.0000 C   0  0  0  0  0  0  0  0  0  0  0  0
   -2.9672   -4.8843    0.0000 N   0  0  0  0  0  0  0  0  0  0  0  0
   -4.0819   -5.8880    0.0000 C   0  0  0  0  0  0  0  0  0  0  0  0
   -4.1604   -7.3859    0.0000 C   0  0  0  0  0  0  0  0  0  0  0  0
   -5.6584   -7.3074    0.0000 C   0  0  0  0  0  0  0  0  0  0  0  0
   -5.5799   -5.8095    0.0000 C   0  0  0  0  0  0  0  0  0  0  0  0
  1  2  1  0
  2  3  2  0
  2  4  1  0
  4  5  2  0
  5  6  1  0
  6  7  2  0
  7  8  1  0
  9  8  1  1
  9 10  1  0
 10 11  1  0
 11 12  1  0
 12 13  1  0
 13 14  1  0
 14 15  1  1
  7 16  1  0
 16 17  2  0
 17 18  1  0
 18 19  1  0
 19 20  2  0
 20 21  1  0
 21 22  2  0
 22 23  1  0
 23 24  2  0
 24 25  1  0
 25 26  2  0
 26 27  1  0
 27 28  1  0
 28 29  1  0
 29 30  1  0
 30 31  1  0
 17  4  1  0
 24 19  1  0
 31 28  1  0
 14  9  1  0
 27 23  1  0
M  END
>  <Compound_ID>  (189) 
CHEMBL3971204

>  <Molecule Name>  (189) 
nan

>  <Molecular Weight>  (189) 
422.49

>  <AlogP>  (189) 
1.92

>  <Smiles>  (189) 
NC(=O)c1nnc(N[C@@H]2CCOC[C@@H]2N)nc1Nc1cccc2c1ccn2C1CCC1

>  <Standard Type>  (189) 
IC50

>  <Standard Relation>  (189) 
'='

>  <Standard Units>  (189) 
nM

>  <Standard Value>  (189) 
0.41

>  <Assay ChEMBL ID>  (189) 
CHEMBL3887308

>  <Assay Description>  (189) 
Syk Kinase Inhibition Assay: The in vitro inhibitory activity of the compound of the present invention against Syk kinase activity was assayed under the following conditions: the purified human Syk protein used in the test were purchased from Carna Biosciences, Inc. For the inhibitory activity assay on the compound, the compound of the present invention was first serially diluted with dimethyl sulfoxide (DMSO). Next, the purified human Syk protein FL-Peptide 22 (final concentration: 1 uM) (Caliper Life Sciences, Inc.), magnesium chloride (final concentration: 5 mM), ATP (final concentration: 30 uM), and each DMSO solution of the compound of the present invention (final concentration of DMSO: 5%) were added into a buffer solution for reaction (20 mM tris-HCl pH 7.5, 20 mM NaCl, 2.5 mM DTT, 0.02% Tween-20, 1% glycerol, 0.01 mM Pefabloc), and the mixture was then incubated at 25° C. for 30 minutes to perform kinase reaction. The kinase reaction was stopped by the addition thereto of EDTA.

>  <BAO Format ID>  (189) 
BAO_0000357

>  <BAO Label>  (189) 
single protein format

>  <Assay Organism>  (189) 
Homo sapiens

>  <Target ChEMBL ID>  (189) 
CHEMBL2599

>  <Target Name>  (189) 
Tyrosine-protein kinase SYK

>  <Target Organism>  (189) 
Homo sapiens

>  <Target Type>  (189) 
SINGLE PROTEIN

>  <Document ChEMBL ID>  (189) 
CHEMBL3886160

>  <Source Description>  (189) 
BindingDB Database

>  <Document Journal>  (189) 
nan

>  <Document Year>  (189) 
2015.0

>  <Active>  (189) 
1.0

>  <bits>  (189) 
<rdkit.DataStructs.cDataStructs.ExplicitBitVect object at 0x00000193F3406CE0>

>  <Group>  (189) 
G2

$$$$

     RDKit          2D

 48 54  0  0  0  0  0  0  0  0999 V2000
  -11.5066   -0.8941    0.0000 C   0  0  0  0  0  0  0  0  0  0  0  0
  -10.5029   -2.0088    0.0000 C   0  0  0  0  0  0  0  0  0  0  0  0
  -10.9664   -3.4354    0.0000 C   0  0  0  0  0  0  0  0  0  0  0  0
   -9.9627   -4.5501    0.0000 C   0  0  0  0  0  0  0  0  0  0  0  0
   -8.4955   -4.2382    0.0000 C   0  0  0  0  0  0  0  0  0  0  0  0
   -7.4918   -5.3529    0.0000 N   0  0  0  0  0  0  0  0  0  0  0  0
   -7.8037   -6.8202    0.0000 N   0  0  0  0  0  0  0  0  0  0  0  0
   -6.5046   -7.5702    0.0000 C   0  0  0  0  0  0  0  0  0  0  0  0
   -6.3478   -9.0619    0.0000 C   0  0  0  0  0  0  0  0  0  0  0  0
   -4.8560   -8.9052    0.0000 C   0  0  0  0  0  0  0  0  0  0  0  0
   -7.8396   -9.2187    0.0000 C   0  0  0  0  0  0  0  0  0  0  0  0
   -6.1910  -10.5537    0.0000 C   0  0  0  0  0  0  0  0  0  0  0  0
   -5.3899   -6.5665    0.0000 C   0  0  0  0  0  0  0  0  0  0  0  0
   -6.0000   -5.1962    0.0000 C   0  0  0  0  0  0  0  0  0  0  0  0
   -5.2500   -3.8971    0.0000 N   0  0  0  0  0  0  0  0  0  0  0  0
   -3.7500   -3.8971    0.0000 C   0  0  0  0  0  0  0  0  0  0  0  0
   -3.0000   -5.1962    0.0000 O   0  0  0  0  0  0  0  0  0  0  0  0
   -3.0000   -2.5981    0.0000 N   0  0  0  0  0  0  0  0  0  0  0  0
   -1.5000   -2.5981    0.0000 C   0  0  0  0  0  0  0  0  0  0  0  0
   -0.7500   -3.8971    0.0000 C   0  0  0  0  0  0  0  0  0  0  0  0
    0.7500   -3.8971    0.0000 C   0  0  0  0  0  0  0  0  0  0  0  0
    1.5000   -2.5981    0.0000 C   0  0  0  0  0  0  0  0  0  0  0  0
    3.0000   -2.5981    0.0000 O   0  0  0  0  0  0  0  0  0  0  0  0
    3.7500   -3.8971    0.0000 C   0  0  0  0  0  0  0  0  0  0  0  0
    3.0000   -5.1962    0.0000 C   0  0  0  0  0  0  0  0  0  0  0  0
    3.7500   -6.4952    0.0000 C   0  0  0  0  0  0  0  0  0  0  0  0
    5.2500   -6.4952    0.0000 N   0  0  0  0  0  0  0  0  0  0  0  0
    6.0000   -5.1962    0.0000 C   0  0  0  0  0  0  0  0  0  0  0  0
    7.5000   -5.1962    0.0000 N   0  0  0  0  0  0  0  0  0  0  0  0
    8.2500   -6.4952    0.0000 C   0  0  0  0  0  0  0  0  0  0  0  0
    7.5000   -7.7942    0.0000 C   0  0  0  0  0  0  0  0  0  0  0  0
    8.2500   -9.0933    0.0000 C   0  0  0  0  0  0  0  0  0  0  0  0
    7.5000  -10.3923    0.0000 C   0  0  0  0  0  0  0  0  0  0  0  0
    9.7500   -9.0933    0.0000 C   0  0  0  0  0  0  0  0  0  0  0  0
   10.7537  -10.2080    0.0000 N   0  0  0  0  0  0  0  0  0  0  0  0
   12.1240   -9.5979    0.0000 N   0  0  0  0  0  0  0  0  0  0  0  0
   11.9672   -8.1061    0.0000 C   0  0  0  0  0  0  0  0  0  0  0  0
   10.5000   -7.7942    0.0000 C   0  0  0  0  0  0  0  0  0  0  0  0
    9.7500   -6.4952    0.0000 C   0  0  0  0  0  0  0  0  0  0  0  0
    5.2500   -3.8971    0.0000 N   0  0  0  0  0  0  0  0  0  0  0  0
    0.7500   -1.2990    0.0000 C   0  0  0  0  0  0  0  0  0  0  0  0
    1.5000    0.0000    0.0000 C   0  0  0  0  0  0  0  0  0  0  0  0
    0.7500    1.2990    0.0000 C   0  0  0  0  0  0  0  0  0  0  0  0
   -0.7500    1.2990    0.0000 C   0  0  0  0  0  0  0  0  0  0  0  0
   -1.5000    0.0000    0.0000 C   0  0  0  0  0  0  0  0  0  0  0  0
   -0.7500   -1.2990    0.0000 C   0  0  0  0  0  0  0  0  0  0  0  0
   -8.0320   -2.8116    0.0000 C   0  0  0  0  0  0  0  0  0  0  0  0
   -9.0356   -1.6969    0.0000 C   0  0  0  0  0  0  0  0  0  0  0  0
  1  2  1  0
  2  3  2  0
  3  4  1  0
  4  5  2  0
  5  6  1  0
  6  7  1  0
  7  8  2  0
  8  9  1  0
  9 10  1  0
  9 11  1  0
  9 12  1  0
  8 13  1  0
 13 14  2  0
 14 15  1  0
 15 16  1  0
 16 17  2  0
 16 18  1  0
 18 19  1  0
 19 20  2  0
 20 21  1  0
 21 22  2  0
 22 23  1  0
 23 24  1  0
 24 25  2  0
 25 26  1  0
 26 27  2  0
 27 28  1  0
 28 29  1  0
 29 30  1  0
 30 31  2  0
 31 32  1  0
 32 33  1  0
 32 34  2  0
 34 35  1  0
 35 36  1  0
 36 37  2  0
 37 38  1  0
 38 39  2  0
 28 40  2  0
 22 41  1  0
 41 42  2  0
 42 43  1  0
 43 44  2  0
 44 45  1  0
 45 46  2  0
  5 47  1  0
 47 48  2  0
 48  2  1  0
 14  6  1  0
 46 19  1  0
 40 24  1  0
 46 41  1  0
 39 30  1  0
 38 34  1  0
M  END
>  <Compound_ID>  (190) 
CHEMBL3956405

>  <Molecule Name>  (190) 
nan

>  <Molecular Weight>  (190) 
637.75

>  <AlogP>  (190) 
8.79

>  <Smiles>  (190) 
Cc1ccc(-n2nc(C(C)(C)C)cc2NC(=O)Nc2ccc(Oc3ccnc(Nc4cc(C)c5[nH]ncc5c4)n3)c3ccccc23)cc1

>  <Standard Type>  (190) 
IC50

>  <Standard Relation>  (190) 
'='

>  <Standard Units>  (190) 
nM

>  <Standard Value>  (190) 
17.0

>  <Assay ChEMBL ID>  (190) 
CHEMBL3887920

>  <Assay Description>  (190) 
c-Src and Syk Enzyme Inhibition Assay: The inhibitory activities of compounds of the invention against c-Src and Syk enzymes (Invitrogen), are evaluated in a similar fashion to that described hereinabove. The relevant enzyme (3000 ng/mL or 2000 ng/mL respectively, 2.5 uL) is incubated with the test compound (either 4 ug/mL, 0.4 ug/mL, 0.04 ug/mL, or 0.004 ug/mL, 2.5 uL each) for 2 hr at RT. The FRET peptides (8 uM, 2.5 uL), and appropriate ATP solutions (2.5 uL, 800 uM for c-Src, and 60 uM ATP for Syk) are then added to the enzymes/compound mixtures and incubated for 1 hr. Development reagent (protease, 5 uL) is added for 1 hr prior to detection in a fluorescence microplate reader (Varioskan Flash, ThermoFisher Scientific).

>  <BAO Format ID>  (190) 
BAO_0000357

>  <BAO Label>  (190) 
single protein format

>  <Assay Organism>  (190) 
Homo sapiens

>  <Target ChEMBL ID>  (190) 
CHEMBL2599

>  <Target Name>  (190) 
Tyrosine-protein kinase SYK

>  <Target Organism>  (190) 
Homo sapiens

>  <Target Type>  (190) 
SINGLE PROTEIN

>  <Document ChEMBL ID>  (190) 
CHEMBL3886505

>  <Source Description>  (190) 
BindingDB Database

>  <Document Journal>  (190) 
nan

>  <Document Year>  (190) 
2016.0

>  <Active>  (190) 
1.0

>  <bits>  (190) 
<rdkit.DataStructs.cDataStructs.ExplicitBitVect object at 0x00000193F3406260>

>  <Group>  (190) 
G2

$$$$

     RDKit          2D

 29 32  0  0  0  0  0  0  0  0999 V2000
    3.0000  -10.3923    0.0000 C   0  0  0  0  0  0  0  0  0  0  0  0
    3.7500   -9.0933    0.0000 O   0  0  0  0  0  0  0  0  0  0  0  0
    3.0000   -7.7942    0.0000 C   0  0  0  0  0  0  0  0  0  0  0  0
    1.5000   -7.7942    0.0000 C   0  0  0  0  0  0  0  0  0  0  0  0
    0.7500   -6.4952    0.0000 C   0  0  0  0  0  0  0  0  0  0  0  0
    1.5000   -5.1962    0.0000 C   0  0  0  0  0  0  0  0  0  0  0  0
    0.7500   -3.8971    0.0000 C   0  0  0  0  0  0  0  0  0  0  0  0
    1.5000   -2.5981    0.0000 C   0  0  0  0  0  0  0  0  0  0  0  0
    0.7500   -1.2990    0.0000 C   0  0  0  0  0  0  0  0  0  0  0  0
    1.5000    0.0000    0.0000 N   0  0  0  0  0  0  0  0  0  0  0  0
    0.7500    1.2990    0.0000 C   0  0  0  0  0  0  0  0  0  0  0  0
   -0.7500    1.2990    0.0000 C   0  0  0  0  0  0  0  0  0  0  0  0
   -1.5000    0.0000    0.0000 C   0  0  0  0  0  0  0  0  0  0  0  0
   -0.7500   -1.2990    0.0000 C   0  0  0  0  0  0  0  0  0  0  0  0
   -1.5000   -2.5981    0.0000 C   0  0  0  0  0  0  0  0  0  0  0  0
   -3.0000   -2.5981    0.0000 N   0  0  0  0  0  0  0  0  0  0  0  0
   -3.7500   -3.8971    0.0000 C   0  0  0  0  0  0  0  0  0  0  0  0
   -5.2500   -3.8971    0.0000 C   0  0  0  0  0  0  0  0  0  0  0  0
   -6.0000   -2.5981    0.0000 C   0  0  0  0  0  0  0  0  0  0  0  0
   -7.5000   -2.5981    0.0000 C   0  0  0  0  0  0  0  0  0  0  0  0
   -8.2500   -3.8971    0.0000 C   0  0  0  0  0  0  0  0  0  0  0  0
   -9.7500   -3.8971    0.0000 O   0  0  0  0  0  0  0  0  0  0  0  0
   -7.5000   -5.1962    0.0000 N   0  0  0  0  0  0  0  0  0  0  0  0
   -6.0000   -5.1962    0.0000 C   0  0  0  0  0  0  0  0  0  0  0  0
   -0.7500   -3.8971    0.0000 N   0  0  0  0  0  0  0  0  0  0  0  0
    3.0000   -5.1962    0.0000 C   0  0  0  0  0  0  0  0  0  0  0  0
    3.7500   -6.4952    0.0000 C   0  0  0  0  0  0  0  0  0  0  0  0
    5.2500   -6.4952    0.0000 O   0  0  0  0  0  0  0  0  0  0  0  0
    6.0000   -5.1962    0.0000 C   0  0  0  0  0  0  0  0  0  0  0  0
  1  2  1  0
  2  3  1  0
  3  4  2  0
  4  5  1  0
  5  6  2  0
  6  7  1  0
  7  8  2  0
  8  9  1  0
  9 10  2  0
 10 11  1  0
 11 12  2  0
 12 13  1  0
 13 14  2  0
 14 15  1  0
 15 16  1  0
 16 17  1  0
 17 18  1  0
 18 19  1  0
 19 20  2  0
 20 21  1  0
 21 22  2  0
 21 23  1  0
 23 24  1  0
 15 25  2  0
  6 26  1  0
 26 27  2  0
 27 28  1  0
 28 29  1  0
 27  3  1  0
 25  7  1  0
 14  9  1  0
 24 18  2  0
M  END
>  <Compound_ID>  (191) 
CHEMBL3696032

>  <Molecule Name>  (191) 
nan

>  <Molecular Weight>  (191) 
388.43

>  <AlogP>  (191) 
3.61

>  <Smiles>  (191) 
COc1ccc(-c2cc3ncccc3c(NCc3ccc(=O)[nH]c3)n2)cc1OC

>  <Standard Type>  (191) 
IC50

>  <Standard Relation>  (191) 
'='

>  <Standard Units>  (191) 
nM

>  <Standard Value>  (191) 
16.0

>  <Assay ChEMBL ID>  (191) 
CHEMBL3705989

>  <Assay Description>  (191) 
Kinase Glo Luminescence Kinase Assay: Recombinant human Syk (amino acids 342-635) was expressed as a fusion protein with an N-terminal GST tag, affinity-purified and deep-frozen at a concentration of approx. 50 - 100 uM in test buffer (25 mM HEPES pH7.5; 25 mM MgCI2;5 mM MnCI2; 50 mM KCI; 0.2% BSA; 0.01 % CHAPS; 100 uM Na3V04; 0.5 mM DTT) and 10% glycerol at -80 C until use.The catalytic activity of the GST-Syk kinase fusion protein was determined using the Kinase Glo Luminescence Kinase test (Promega; V6712). In this homogeneous test the amount of ATP remaining after the kinase reaction is quantified by a luciferin-luciferase reaction using luminescence. The luminescence signal obtained correlates with the amount of ATP still present and thus correlates inversely with the activity of the protein kinase. Method:The test compounds were dissolved in 100 % DMSO at a concentration of 10 mM and diluted in DMSO to a concentration of 1 mM.

>  <BAO Format ID>  (191) 
BAO_0000357

>  <BAO Label>  (191) 
single protein format

>  <Assay Organism>  (191) 
Homo sapiens

>  <Target ChEMBL ID>  (191) 
CHEMBL2599

>  <Target Name>  (191) 
Tyrosine-protein kinase SYK

>  <Target Organism>  (191) 
Homo sapiens

>  <Target Type>  (191) 
SINGLE PROTEIN

>  <Document ChEMBL ID>  (191) 
CHEMBL3639308

>  <Source Description>  (191) 
BindingDB Database

>  <Document Journal>  (191) 
nan

>  <Document Year>  (191) 
2015.0

>  <Active>  (191) 
1.0

>  <bits>  (191) 
<rdkit.DataStructs.cDataStructs.ExplicitBitVect object at 0x00000193F3405540>

>  <Group>  (191) 
G2

$$$$

     RDKit          2D

 35 39  0  0  0  0  0  0  0  0999 V2000
    1.2990  -11.8573    0.0000 C   0  0  0  0  0  0  0  0  0  0  0  0
    1.2990  -10.3573    0.0000 N   0  0  0  0  0  0  0  0  0  0  0  0
    2.5981   -9.6073    0.0000 C   0  0  0  0  0  0  0  0  0  0  0  0
    0.0000   -9.6073    0.0000 C   0  0  0  0  0  0  0  0  0  0  0  0
    0.0000   -8.1073    0.0000 C   0  0  0  0  0  0  0  0  0  0  0  0
   -1.2990   -7.3573    0.0000 C   0  0  0  0  0  0  0  0  0  0  0  0
   -2.5981   -8.1073    0.0000 C   0  0  0  0  0  0  0  0  0  0  0  0
   -3.8971   -7.3573    0.0000 C   0  0  0  0  0  0  0  0  0  0  0  0
   -3.8971   -5.8573    0.0000 C   0  0  0  0  0  0  0  0  0  0  0  0
   -2.5981   -5.1073    0.0000 C   0  0  0  0  0  0  0  0  0  0  0  0
   -1.2990   -5.8573    0.0000 N   0  0  0  0  0  0  0  0  0  0  0  0
   -0.0000   -5.1073    0.0000 C   0  0  0  0  0  0  0  0  0  0  0  0
    1.2990   -5.8573    0.0000 O   0  0  0  0  0  0  0  0  0  0  0  0
   -0.0000   -3.6073    0.0000 C   0  0  0  0  0  0  0  0  0  0  0  0
    1.2135   -2.7256    0.0000 C   0  0  0  0  0  0  0  0  0  0  0  0
    0.7500   -1.2990    0.0000 C   0  0  0  0  0  0  0  0  0  0  0  0
    1.5000    0.0000    0.0000 C   0  0  0  0  0  0  0  0  0  0  0  0
    0.7500    1.2990    0.0000 C   0  0  0  0  0  0  0  0  0  0  0  0
    1.5000    2.5981    0.0000 N   0  0  0  0  0  0  0  0  0  0  0  0
    3.0000    2.5981    0.0000 C   0  0  0  0  0  0  0  0  0  0  0  0
    3.7500    1.2990    0.0000 N   0  0  0  0  0  0  0  0  0  0  0  0
    5.2500    1.2990    0.0000 C   0  0  0  0  0  0  0  0  0  0  0  0
    6.0000    2.5981    0.0000 C   0  0  0  0  0  0  0  0  0  0  0  0
    5.2500    3.8971    0.0000 C   0  0  0  0  0  0  0  0  0  0  0  0
    6.0000    5.1962    0.0000 C   0  0  0  0  0  0  0  0  0  0  0  0
    7.5000    5.1962    0.0000 C   0  0  0  0  0  0  0  0  0  0  0  0
    8.2500    6.4952    0.0000 C   0  0  0  0  0  0  0  0  0  0  0  0
    7.5000    7.7942    0.0000 C   0  0  0  0  0  0  0  0  0  0  0  0
    6.0000    7.7942    0.0000 C   0  0  0  0  0  0  0  0  0  0  0  0
    5.2500    6.4952    0.0000 N   0  0  0  0  0  0  0  0  0  0  0  0
    3.7500    3.8971    0.0000 N   0  0  0  0  0  0  0  0  0  0  0  0
   -0.7500    1.2990    0.0000 C   0  0  0  0  0  0  0  0  0  0  0  0
   -1.5000    0.0000    0.0000 C   0  0  0  0  0  0  0  0  0  0  0  0
   -0.7500   -1.2990    0.0000 C   0  0  0  0  0  0  0  0  0  0  0  0
   -1.2135   -2.7256    0.0000 N   0  0  0  0  0  0  0  0  0  0  0  0
  1  2  1  0
  2  3  1  0
  2  4  1  0
  4  5  1  0
  5  6  1  0
  6  7  1  0
  7  8  1  0
  8  9  1  0
  9 10  1  0
 10 11  1  0
 11 12  1  0
 12 13  2  0
 12 14  1  0
 14 15  2  0
 15 16  1  0
 16 17  2  0
 17 18  1  0
 18 19  1  0
 19 20  1  0
 20 21  2  0
 21 22  1  0
 22 23  2  0
 23 24  1  0
 24 25  1  0
 25 26  2  0
 26 27  1  0
 27 28  2  0
 28 29  1  0
 29 30  2  0
 24 31  2  0
 18 32  2  0
 32 33  1  0
 33 34  2  0
 34 35  1  0
 11  6  1  0
 35 14  1  0
 34 16  1  0
 31 20  1  0
 30 25  1  0
M  END
>  <Compound_ID>  (192) 
CHEMBL3641618

>  <Molecule Name>  (192) 
nan

>  <Molecular Weight>  (192) 
469.59

>  <AlogP>  (192) 
4.71

>  <Smiles>  (192) 
CN(C)CCC1CCCCN1C(=O)c1cc2cc(Nc3nccc(-c4ccccn4)n3)ccc2[nH]1

>  <Standard Type>  (192) 
IC50

>  <Standard Relation>  (192) 
'='

>  <Standard Units>  (192) 
nM

>  <Standard Value>  (192) 
77.4

>  <Assay ChEMBL ID>  (192) 
CHEMBL3705803

>  <Assay Description>  (192) 
Kinase Glo Luminescence Kinase Assay: Recombinant human Syk (amino acids 342-635) was expressed as a fusion protein with an N-terminal GST tag, affinity-purified and deep-frozen at a concentration of approx. 50-100 uM in test buffer (25 mM HEPES pH7.5; 25 mM MgCl2; 5 mM MnCl2; 50 mM KCl; 0.2% BSA; 0.01% CHAPS; 100 uM Na3VO4; 0.5 mM DTT) and 10% glycerol at -80 C until use. The catalytic activity of the GST-Syk kinase fusion protein was determined using the Kinase Glo Luminescence Kinase test (Promega; V6712). In this homogeneous test the amount of ATP remaining after the kinase reaction is quantified by a luciferin-luciferase reaction using luminescence. The luminescence signal obtained correlates with the amount of ATP still present and thus correlates inversely with the activity of the protein kinase. The test compounds were dissolved in 100% DMSO at a concentration of 10 mM and diluted in DMSO to a concentration of 1 mM.

>  <BAO Format ID>  (192) 
BAO_0000357

>  <BAO Label>  (192) 
single protein format

>  <Assay Organism>  (192) 
Homo sapiens

>  <Target ChEMBL ID>  (192) 
CHEMBL2599

>  <Target Name>  (192) 
Tyrosine-protein kinase SYK

>  <Target Organism>  (192) 
Homo sapiens

>  <Target Type>  (192) 
SINGLE PROTEIN

>  <Document ChEMBL ID>  (192) 
CHEMBL3638486

>  <Source Description>  (192) 
BindingDB Database

>  <Document Journal>  (192) 
nan

>  <Document Year>  (192) 
2014.0

>  <Active>  (192) 
1.0

>  <bits>  (192) 
<rdkit.DataStructs.cDataStructs.ExplicitBitVect object at 0x00000193F3405D90>

>  <Group>  (192) 
G2

$$$$

     RDKit          2D

 28 30  0  0  0  0  0  0  0  0999 V2000
    3.0000   -7.7942    0.0000 C   0  0  0  0  0  0  0  0  0  0  0  0
    3.7500   -6.4952    0.0000 N   0  0  0  0  0  0  0  0  0  0  0  0
    3.0000   -5.1962    0.0000 C   0  0  0  0  0  0  0  0  0  0  0  0
    1.5000   -5.1962    0.0000 C   0  0  0  0  0  0  0  0  0  0  0  0
    0.7500   -3.8971    0.0000 C   0  0  0  0  0  0  0  0  0  0  0  0
    1.5000   -2.5981    0.0000 C   0  0  0  0  0  0  0  0  0  0  0  0
    0.7500   -1.2990    0.0000 C   0  0  0  0  0  0  0  0  0  0  0  0
    1.5000    0.0000    0.0000 C   0  0  0  0  0  0  0  0  0  0  0  0
    0.7500    1.2990    0.0000 C   0  0  0  0  0  0  0  0  0  0  0  0
    1.5000    2.5981    0.0000 N   0  0  0  0  0  0  0  0  0  0  0  0
    0.7500    3.8971    0.0000 C   0  0  0  0  0  0  0  0  0  0  0  0
   -0.7500    3.8971    0.0000 N   0  0  0  0  0  0  0  0  0  0  0  0
   -1.5000    5.1962    0.0000 C   0  0  0  0  0  0  0  0  0  0  0  0
   -1.5000    2.5981    0.0000 C   0  0  0  0  0  0  0  0  0  0  0  0
   -3.0000    2.5981    0.0000 O   0  0  0  0  0  0  0  0  0  0  0  0
   -0.7500    1.2990    0.0000 C   0  0  0  0  0  0  0  0  0  0  0  0
   -1.5000    0.0000    0.0000 C   0  0  0  0  0  0  0  0  0  0  0  0
   -3.0000    0.0000    0.0000 N   0  0  0  0  0  0  0  0  0  0  0  0
   -3.7500   -1.2990    0.0000 C   0  0  0  0  0  0  0  0  0  0  0  0
   -5.2500   -1.2990    0.0000 C   0  0  0  0  0  0  0  0  0  0  0  0
   -6.0000   -2.5981    0.0000 O   0  0  0  0  0  0  0  0  0  0  0  0
   -0.7500   -1.2990    0.0000 N   0  0  0  0  0  0  0  0  0  0  0  0
    3.0000   -2.5981    0.0000 C   0  0  0  0  0  0  0  0  0  0  0  0
    3.7500   -3.8971    0.0000 C   0  0  0  0  0  0  0  0  0  0  0  0
    5.2500   -3.8971    0.0000 S   0  0  0  0  0  0  0  0  0  0  0  0
    6.7500   -3.8971    0.0000 C   0  0  0  0  0  0  0  0  0  0  0  0
    5.2500   -5.3971    0.0000 O   0  0  0  0  0  0  0  0  0  0  0  0
    5.2500   -2.3971    0.0000 O   0  0  0  0  0  0  0  0  0  0  0  0
  1  2  1  0
  2  3  1  0
  3  4  2  0
  4  5  1  0
  5  6  2  0
  6  7  1  0
  7  8  2  0
  8  9  1  0
  9 10  1  0
 10 11  2  0
 11 12  1  0
 12 13  1  0
 12 14  1  0
 14 15  2  0
 14 16  1  0
 16 17  1  0
 17 18  1  0
 18 19  1  0
 19 20  1  0
 20 21  1  0
 17 22  2  0
  6 23  1  0
 23 24  2  0
 24 25  1  0
 25 26  1  0
 25 27  2  0
 25 28  2  0
 24  3  1  0
 22  7  1  0
 16  9  2  0
M  END
>  <Compound_ID>  (193) 
CHEMBL3698104

>  <Molecule Name>  (193) 
nan

>  <Molecular Weight>  (193) 
403.46

>  <AlogP>  (193) 
0.84

>  <Smiles>  (193) 
CNc1ccc(-c2cc3ncn(C)c(=O)c3c(NCCO)n2)cc1S(C)(=O)=O

>  <Standard Type>  (193) 
IC50

>  <Standard Relation>  (193) 
'='

>  <Standard Units>  (193) 
nM

>  <Standard Value>  (193) 
67.0

>  <Assay ChEMBL ID>  (193) 
CHEMBL3705362

>  <Assay Description>  (193) 
Mobility-Shift kinase assay: Compounds of the examples provided herein were assessed for their ability to inhibit Syk kinase by utilizing Caliper Life Sciences' proprietary LabChip technology. The off-chip incubation mobility-shift kinase assay uses a microfluidic chip to measure the conversion of a fluorescent peptide substrate to a phosphorylated product. The reaction mixture, from a microtiter plate well, is introduced through a capillary sipper onto the chip, where the nonphosphorylated substrate and phosphorylated product are separated by electrophoresis and detected via laser induced fluorescence. The signature of the fluorescence signal over time reveals the extent of the reaction. The phosphorylated product migrates through the chip faster than the non-phosphorylated substrate, and signals from the two forms of the peptide appear as distinct peaks.

>  <BAO Format ID>  (193) 
BAO_0000357

>  <BAO Label>  (193) 
single protein format

>  <Assay Organism>  (193) 
Homo sapiens

>  <Target ChEMBL ID>  (193) 
CHEMBL2599

>  <Target Name>  (193) 
Tyrosine-protein kinase SYK

>  <Target Organism>  (193) 
Homo sapiens

>  <Target Type>  (193) 
SINGLE PROTEIN

>  <Document ChEMBL ID>  (193) 
CHEMBL3639055

>  <Source Description>  (193) 
BindingDB Database

>  <Document Journal>  (193) 
nan

>  <Document Year>  (193) 
2014.0

>  <Active>  (193) 
1.0

>  <bits>  (193) 
<rdkit.DataStructs.cDataStructs.ExplicitBitVect object at 0x00000193F3406420>

>  <Group>  (193) 
G2

$$$$

     RDKit          2D

 32 36  0  0  0  0  0  0  0  0999 V2000
   -6.4937   -2.7256    0.0000 C   0  0  0  0  0  0  0  0  0  0  0  0
   -5.0672   -3.1891    0.0000 C   0  0  0  0  0  0  0  0  0  0  0  0
   -4.6036   -4.6157    0.0000 N   0  0  0  0  0  0  0  0  0  0  0  0
   -3.1036   -4.6157    0.0000 N   0  0  0  0  0  0  0  0  0  0  0  0
   -2.6401   -3.1891    0.0000 C   0  0  0  0  0  0  0  0  0  0  0  0
   -1.2135   -2.7256    0.0000 C   0  0  0  0  0  0  0  0  0  0  0  0
   -0.0000   -3.6073    0.0000 N   0  0  0  0  0  0  0  0  0  0  0  0
    1.2135   -2.7256    0.0000 C   0  0  0  0  0  0  0  0  0  0  0  0
    0.7500   -1.2990    0.0000 N   0  0  0  0  0  0  0  0  0  0  0  0
    1.5000    0.0000    0.0000 C   0  0  0  0  0  0  0  0  0  0  0  0
    0.7500    1.2990    0.0000 C   0  0  0  0  0  0  0  0  0  0  0  0
   -0.7500    1.2990    0.0000 C   0  0  0  0  0  0  0  0  0  0  0  0
   -1.5000    2.5981    0.0000 N   0  0  0  0  0  0  0  0  0  0  0  0
   -0.7500    3.8971    0.0000 C   0  0  0  0  0  0  0  0  0  0  0  0
    0.7500    3.8971    0.0000 N   0  0  0  0  0  0  0  0  0  0  0  0
    1.5000    5.1962    0.0000 C   0  0  0  0  0  0  0  0  0  0  0  0
    0.7500    6.4952    0.0000 C   0  0  0  0  0  0  0  0  0  0  0  0
   -0.7500    6.4952    0.0000 C   0  0  0  0  0  0  0  0  0  0  0  0
   -1.5000    7.7942    0.0000 C   0  0  0  0  0  0  0  0  0  0  0  0
   -2.9918    7.9510    0.0000 C   0  0  0  0  0  0  0  0  0  0  0  0
   -3.3037    9.4182    0.0000 C   0  0  0  0  0  0  0  0  0  0  0  0
   -4.6740   10.0283    0.0000 C   0  0  0  0  0  0  0  0  0  0  0  0
   -4.8308   11.5201    0.0000 N   0  0  0  0  0  0  0  0  0  0  0  0
   -6.2011   12.1302    0.0000 C   0  0  0  0  0  0  0  0  0  0  0  0
   -3.6172   12.4018    0.0000 C   0  0  0  0  0  0  0  0  0  0  0  0
   -2.0046   10.1682    0.0000 N   0  0  0  0  0  0  0  0  0  0  0  0
   -1.8478   11.6600    0.0000 C   0  0  0  0  0  0  0  0  0  0  0  0
   -0.8899    9.1645    0.0000 N   0  0  0  0  0  0  0  0  0  0  0  0
   -1.5000    5.1962    0.0000 N   0  0  0  0  0  0  0  0  0  0  0  0
   -1.5000    0.0000    0.0000 C   0  0  0  0  0  0  0  0  0  0  0  0
   -0.7500   -1.2990    0.0000 C   0  0  0  0  0  0  0  0  0  0  0  0
   -3.8536   -2.3075    0.0000 O   0  0  0  0  0  0  0  0  0  0  0  0
  1  2  1  0
  2  3  2  0
  3  4  1  0
  4  5  2  0
  5  6  1  0
  6  7  1  0
  7  8  2  0
  8  9  1  0
  9 10  1  0
 10 11  2  0
 11 12  1  0
 12 13  1  0
 13 14  1  0
 14 15  2  0
 15 16  1  0
 16 17  2  0
 17 18  1  0
 18 19  1  0
 19 20  1  0
 20 21  2  0
 21 22  1  0
 22 23  1  0
 23 24  1  0
 23 25  1  0
 21 26  1  0
 26 27  1  0
 26 28  1  0
 18 29  2  0
 12 30  2  0
 30 31  1  0
  5 32  1  0
 32  2  1  0
 31  6  2  0
 31  9  1  0
 29 14  1  0
 28 19  2  0
M  END
>  <Compound_ID>  (194) 
CHEMBL4759636

>  <Molecule Name>  (194) 
nan

>  <Molecular Weight>  (194) 
430.48

>  <AlogP>  (194) 
2.69

>  <Smiles>  (194) 
Cc1nnc(-c2ncn3ccc(Nc4nccc(-c5cc(CN(C)C)n(C)n5)n4)cc23)o1

>  <Standard Type>  (194) 
IC50

>  <Standard Relation>  (194) 
'='

>  <Standard Units>  (194) 
nM

>  <Standard Value>  (194) 
0.21

>  <Assay ChEMBL ID>  (194) 
CHEMBL4669219

>  <Assay Description>  (194) 
Inhibition of SYK (unknown origin)

>  <BAO Format ID>  (194) 
BAO_0000357

>  <BAO Label>  (194) 
single protein format

>  <Assay Organism>  (194) 
Homo sapiens

>  <Target ChEMBL ID>  (194) 
CHEMBL2599

>  <Target Name>  (194) 
Tyrosine-protein kinase SYK

>  <Target Organism>  (194) 
Homo sapiens

>  <Target Type>  (194) 
SINGLE PROTEIN

>  <Document ChEMBL ID>  (194) 
CHEMBL4665716

>  <Source Description>  (194) 
Scientific Literature

>  <Document Journal>  (194) 
Bioorg Med Chem Lett

>  <Document Year>  (194) 
2020.0

>  <Active>  (194) 
1.0

>  <bits>  (194) 
<rdkit.DataStructs.cDataStructs.ExplicitBitVect object at 0x00000193F3405B60>

>  <Group>  (194) 
G2

$$$$

     RDKit          2D

 39 43  0  0  0  0  0  0  0  0999 V2000
   -7.7206    6.7722    0.0000 C   0  0  0  0  0  0  0  0  0  0  0  0
   -8.0325    5.3050    0.0000 O   0  0  0  0  0  0  0  0  0  0  0  0
   -6.9177    4.3013    0.0000 C   0  0  0  0  0  0  0  0  0  0  0  0
   -5.4912    4.7648    0.0000 C   0  0  0  0  0  0  0  0  0  0  0  0
   -4.3764    3.7611    0.0000 C   0  0  0  0  0  0  0  0  0  0  0  0
   -4.6883    2.2939    0.0000 C   0  0  0  0  0  0  0  0  0  0  0  0
   -3.5736    1.2902    0.0000 N   0  0  0  0  0  0  0  0  0  0  0  0
   -2.1470    1.7537    0.0000 C   0  0  0  0  0  0  0  0  0  0  0  0
   -1.8351    3.2209    0.0000 C   0  0  0  0  0  0  0  0  0  0  0  0
   -0.4086    3.6844    0.0000 C   0  0  0  0  0  0  0  0  0  0  0  0
   -0.0967    5.1517    0.0000 C   0  0  0  0  0  0  0  0  0  0  0  0
    1.3299    5.6152    0.0000 C   0  0  0  0  0  0  0  0  0  0  0  0
    1.6418    7.0824    0.0000 C   0  0  0  0  0  0  0  0  0  0  0  0
    0.5271    8.0861    0.0000 C   0  0  0  0  0  0  0  0  0  0  0  0
    0.8389    9.5533    0.0000 C   0  0  0  0  0  0  0  0  0  0  0  0
   -0.2758   10.5570    0.0000 O   0  0  0  0  0  0  0  0  0  0  0  0
    2.2655   10.0169    0.0000 N   0  0  0  0  0  0  0  0  0  0  0  0
    2.5774   11.4841    0.0000 C   0  0  0  0  0  0  0  0  0  0  0  0
    4.0040   11.9476    0.0000 C   0  0  0  0  0  0  0  0  0  0  0  0
    4.3158   13.4148    0.0000 C   0  0  0  0  0  0  0  0  0  0  0  0
    5.7424   13.8783    0.0000 C   0  0  0  0  0  0  0  0  0  0  0  0
    6.0543   15.3456    0.0000 C   0  0  0  0  0  0  0  0  0  0  0  0
    4.9396   16.3493    0.0000 N   0  0  0  0  0  0  0  0  0  0  0  0
    5.2514   17.8165    0.0000 C   0  0  0  0  0  0  0  0  0  0  0  0
    3.5130   15.8857    0.0000 C   0  0  0  0  0  0  0  0  0  0  0  0
    2.3983   16.8894    0.0000 O   0  0  0  0  0  0  0  0  0  0  0  0
    3.2011   14.4185    0.0000 C   0  0  0  0  0  0  0  0  0  0  0  0
   -0.8995    7.6226    0.0000 C   0  0  0  0  0  0  0  0  0  0  0  0
   -1.2114    6.1554    0.0000 C   0  0  0  0  0  0  0  0  0  0  0  0
    0.7062    2.6807    0.0000 N   0  0  0  0  0  0  0  0  0  0  0  0
    0.3943    1.2135    0.0000 N   0  0  0  0  0  0  0  0  0  0  0  0
    1.2760    0.0000    0.0000 C   0  0  0  0  0  0  0  0  0  0  0  0
    0.3943   -1.2135    0.0000 C   0  0  0  0  0  0  0  0  0  0  0  0
   -1.0323   -0.7500    0.0000 N   0  0  0  0  0  0  0  0  0  0  0  0
   -1.0323    0.7500    0.0000 C   0  0  0  0  0  0  0  0  0  0  0  0
   -6.1149    1.8303    0.0000 N   0  0  0  0  0  0  0  0  0  0  0  0
   -7.2296    2.8340    0.0000 C   0  0  0  0  0  0  0  0  0  0  0  0
   -8.6562    2.3705    0.0000 O   0  0  0  0  0  0  0  0  0  0  0  0
   -8.9681    0.9033    0.0000 C   0  0  0  0  0  0  0  0  0  0  0  0
  1  2  1  0
  2  3  1  0
  3  4  2  0
  4  5  1  0
  5  6  2  0
  6  7  1  0
  7  8  1  0
  8  9  2  0
  9 10  1  0
 10 11  1  0
 11 12  2  0
 12 13  1  0
 13 14  2  0
 14 15  1  0
 15 16  2  0
 15 17  1  0
 17 18  1  0
 18 19  1  0
 19 20  1  0
 20 21  1  0
 21 22  2  0
 22 23  1  0
 23 24  1  0
 23 25  1  0
 25 26  2  0
 25 27  1  0
 14 28  1  0
 28 29  2  0
 10 30  2  0
 30 31  1  0
 31 32  1  0
 32 33  2  0
 33 34  1  0
 34 35  2  0
  6 36  1  0
 36 37  2  0
 37 38  1  0
 38 39  1  0
 37  3  1  0
 35  8  1  0
 29 11  1  0
 35 31  1  0
 27 20  2  0
M  END
>  <Compound_ID>  (195) 
CHEMBL3915378

>  <Molecule Name>  (195) 
nan

>  <Molecular Weight>  (195) 
525.57

>  <AlogP>  (195) 
3.22

>  <Smiles>  (195) 
COc1ccc(Nc2cc(-c3ccc(C(=O)NCCc4ccn(C)c(=O)c4)cc3)nn3ccnc23)nc1OC

>  <Standard Type>  (195) 
IC50

>  <Standard Relation>  (195) 
'='

>  <Standard Units>  (195) 
nM

>  <Standard Value>  (195) 
78.95

>  <Assay ChEMBL ID>  (195) 
CHEMBL3887423

>  <Assay Description>  (195) 
Inhibition Assay: Assay plates: 96-well MultiScreen 0.65 um filter plates (Millipore Cat. No.: MADVNOB10)Streptavidin coated beads: Streptavidin Sepharose, suspension 5.0 mL, in 50 mM EDTA/PBS diluted (1:100), (Amersham, Cat. No.: 17-5113-01)Compounds: 10 mM in 100% dimethylsulfoxide (DMSO), final conc.: compound 0.003-100 uM in 10% DMSOEnzyme: SYK RPA purified, truncated construct of Spleen Tyrosine Kinase aa 360-635, stock solution 1 mg/mL, MW: 31.2 KDa, final conc.:0.0005 uM. Peptide 1: biotinylated peptide is derived from a naturally occurring phosphor-acceptor consensus sequence (Biotin-EPEGDYEEVLE), special order from QCB, stock solution 20 mM, final conc.: 5.0 uM.ATP: Adenosine-5'-triphosphate 20 mM, (ROCHE Cat. No.: 93202720), final concentration: 20 uM Buffer: HEPES: 2-Hydroxyethyl piperazine-2-ethanesulfonic acid (Sigma, Cat. No.: H-3375)final concentration: 50 mM HEPES pH7.5BSA: Bovine Serum Albumin Fraction V, fatty acid free (Roche Diagnostics GmbH, Cat. No. 9100221).

>  <BAO Format ID>  (195) 
BAO_0000357

>  <BAO Label>  (195) 
single protein format

>  <Assay Organism>  (195) 
None

>  <Target ChEMBL ID>  (195) 
CHEMBL2599

>  <Target Name>  (195) 
Tyrosine-protein kinase SYK

>  <Target Organism>  (195) 
Homo sapiens

>  <Target Type>  (195) 
SINGLE PROTEIN

>  <Document ChEMBL ID>  (195) 
CHEMBL3886315

>  <Source Description>  (195) 
BindingDB Database

>  <Document Journal>  (195) 
nan

>  <Document Year>  (195) 
2015.0

>  <Active>  (195) 
1.0

>  <bits>  (195) 
<rdkit.DataStructs.cDataStructs.ExplicitBitVect object at 0x00000193F3406960>

>  <Group>  (195) 
G2

$$$$

     RDKit          2D

 25 26  0  0  0  0  0  0  0  0999 V2000
    8.2500   -3.8971    0.0000 C   0  0  0  0  0  0  0  0  0  0  0  0
    7.5000   -2.5981    0.0000 O   0  0  0  0  0  0  0  0  0  0  0  0
    6.0000   -2.5981    0.0000 C   0  0  0  0  0  0  0  0  0  0  0  0
    5.2500   -1.2990    0.0000 C   0  0  0  0  0  0  0  0  0  0  0  0
    6.0000    0.0000    0.0000 N   0  0  0  0  0  0  0  0  0  0  0  0
    3.7500   -1.2990    0.0000 C   0  0  0  0  0  0  0  0  0  0  0  0
    3.0000    0.0000    0.0000 N   0  0  0  0  0  0  0  0  0  0  0  0
    1.5000    0.0000    0.0000 C   0  0  0  0  0  0  0  0  0  0  0  0
    0.7500   -1.2990    0.0000 C   0  0  0  0  0  0  0  0  0  0  0  0
   -0.7500   -1.2990    0.0000 N   0  0  0  0  0  0  0  0  0  0  0  0
   -1.5000    0.0000    0.0000 C   0  0  0  0  0  0  0  0  0  0  0  0
   -3.0000    0.0000    0.0000 C   0  0  0  0  0  0  0  0  0  0  0  0
   -3.7500   -1.2990    0.0000 N   0  0  0  0  0  0  0  0  0  0  0  0
   -3.7500    1.2990    0.0000 O   0  0  0  0  0  0  0  0  0  0  0  0
   -0.7500    1.2990    0.0000 C   0  0  0  0  0  0  0  0  0  0  0  0
   -1.5000    2.5981    0.0000 N   0  0  0  0  0  0  0  0  0  0  0  0
   -0.7500    3.8971    0.0000 C   0  0  0  0  0  0  0  0  0  0  0  0
    0.7500    3.8971    0.0000 C   0  0  0  0  0  0  0  0  0  0  0  0
    1.5000    5.1962    0.0000 C   0  0  0  0  0  0  0  0  0  0  0  0
    3.0000    5.1962    0.0000 C   0  0  0  0  0  0  0  0  0  0  0  0
    0.7500    6.4952    0.0000 C   0  0  0  0  0  0  0  0  0  0  0  0
   -0.7500    6.4952    0.0000 C   0  0  0  0  0  0  0  0  0  0  0  0
   -1.5000    7.7942    0.0000 C   0  0  0  0  0  0  0  0  0  0  0  0
   -1.5000    5.1962    0.0000 N   0  0  0  0  0  0  0  0  0  0  0  0
    0.7500    1.2990    0.0000 C   0  0  0  0  0  0  0  0  0  0  0  0
  1  2  1  0
  2  3  1  0
  3  4  1  0
  4  5  1  1
  4  6  1  0
  6  7  1  0
  7  8  1  0
  8  9  2  0
  9 10  1  0
 10 11  2  0
 11 12  1  0
 12 13  1  0
 12 14  2  0
 11 15  1  0
 15 16  1  0
 16 17  1  0
 17 18  2  0
 18 19  1  0
 19 20  1  0
 19 21  2  0
 21 22  1  0
 22 23  1  0
 22 24  2  0
 15 25  2  0
 25  8  1  0
 24 17  1  0
M  END
>  <Compound_ID>  (196) 
CHEMBL3415588

>  <Molecule Name>  (196) 
nan

>  <Molecular Weight>  (196) 
344.42

>  <AlogP>  (196) 
1.32

>  <Smiles>  (196) 
COC[C@H](N)CNc1cnc(C(N)=O)c(Nc2cc(C)cc(C)n2)c1

>  <Standard Type>  (196) 
IC50

>  <Standard Relation>  (196) 
'='

>  <Standard Units>  (196) 
nM

>  <Standard Value>  (196) 
0.8

>  <Assay ChEMBL ID>  (196) 
CHEMBL3420413

>  <Assay Description>  (196) 
Inhibition of full-length GST-tagged human Syk preincubated for 10 mins followed by peptide substrate/ATP addition measured after 45 mins by TR-FRET assay

>  <BAO Format ID>  (196) 
BAO_0000357

>  <BAO Label>  (196) 
single protein format

>  <Assay Organism>  (196) 
Homo sapiens

>  <Target ChEMBL ID>  (196) 
CHEMBL2599

>  <Target Name>  (196) 
Tyrosine-protein kinase SYK

>  <Target Organism>  (196) 
Homo sapiens

>  <Target Type>  (196) 
SINGLE PROTEIN

>  <Document ChEMBL ID>  (196) 
CHEMBL3414497

>  <Source Description>  (196) 
Scientific Literature

>  <Document Journal>  (196) 
J Med Chem

>  <Document Year>  (196) 
2015.0

>  <Active>  (196) 
1.0

>  <bits>  (196) 
<rdkit.DataStructs.cDataStructs.ExplicitBitVect object at 0x00000193F3406D50>

>  <Group>  (196) 
G2

$$$$

     RDKit          2D

 25 27  0  0  0  0  0  0  0  0999 V2000
    3.0000    0.0000    0.0000 C   0  0  0  0  0  0  0  0  0  0  0  0
    1.5000    0.0000    0.0000 C   0  0  0  0  0  0  0  0  0  0  0  0
    0.7500   -1.2990    0.0000 C   0  0  0  0  0  0  0  0  0  0  0  0
   -0.7500   -1.2990    0.0000 C   0  0  0  0  0  0  0  0  0  0  0  0
   -1.5000   -2.5981    0.0000 C   0  0  0  0  0  0  0  0  0  0  0  0
   -1.5000    0.0000    0.0000 C   0  0  0  0  0  0  0  0  0  0  0  0
   -0.7500    1.2990    0.0000 C   0  0  0  0  0  0  0  0  0  0  0  0
   -1.5000    2.5981    0.0000 N   0  0  0  0  0  0  0  0  0  0  0  0
   -0.7500    3.8971    0.0000 C   0  0  0  0  0  0  0  0  0  0  0  0
    0.7500    3.8971    0.0000 N   0  0  0  0  0  0  0  0  0  0  0  0
    1.5000    5.1962    0.0000 C   0  0  0  0  0  0  0  0  0  0  0  0
    0.7500    6.4952    0.0000 C   0  0  0  0  0  0  0  0  0  0  0  0
   -0.7500    6.4952    0.0000 C   0  0  0  0  0  0  0  0  0  0  0  0
   -1.5000    7.7942    0.0000 N   0  0  0  0  0  0  0  0  0  0  0  0
   -2.9918    7.9510    0.0000 C   0  0  0  0  0  0  0  0  0  0  0  0
   -3.3037    9.4182    0.0000 C   0  0  0  0  0  0  0  0  0  0  0  0
   -4.6740   10.0283    0.0000 C   0  0  0  0  0  0  0  0  0  0  0  0
   -2.0046   10.1682    0.0000 C   0  0  0  0  0  0  0  0  0  0  0  0
   -1.8478   11.6600    0.0000 C   0  0  0  0  0  0  0  0  0  0  0  0
   -0.4775   12.2701    0.0000 N   0  0  0  0  0  0  0  0  0  0  0  0
   -0.3207   13.7619    0.0000 C   0  0  0  0  0  0  0  0  0  0  0  0
    0.7360   11.3885    0.0000 C   0  0  0  0  0  0  0  0  0  0  0  0
   -0.8899    9.1645    0.0000 C   0  0  0  0  0  0  0  0  0  0  0  0
   -1.5000    5.1962    0.0000 N   0  0  0  0  0  0  0  0  0  0  0  0
    0.7500    1.2990    0.0000 C   0  0  0  0  0  0  0  0  0  0  0  0
  1  2  1  0
  2  3  2  0
  3  4  1  0
  4  5  1  0
  4  6  2  0
  6  7  1  0
  7  8  1  0
  8  9  1  0
  9 10  2  0
 10 11  1  0
 11 12  2  0
 12 13  1  0
 13 14  1  0
 14 15  1  0
 15 16  2  0
 16 17  1  0
 16 18  1  0
 18 19  1  0
 19 20  1  0
 20 21  1  0
 20 22  1  0
 18 23  2  0
 13 24  2  0
  7 25  2  0
 25  2  1  0
 24  9  1  0
 23 14  1  0
M  END
>  <Compound_ID>  (197) 
CHEMBL3622930

>  <Molecule Name>  (197) 
nan

>  <Molecular Weight>  (197) 
335.46

>  <AlogP>  (197) 
4.00

>  <Smiles>  (197) 
Cc1cc(C)cc(Nc2nccc(-n3cc(C)c(CN(C)C)c3)n2)c1

>  <Standard Type>  (197) 
IC50

>  <Standard Relation>  (197) 
'='

>  <Standard Units>  (197) 
nM

>  <Standard Value>  (197) 
6.2

>  <Assay ChEMBL ID>  (197) 
CHEMBL3627015

>  <Assay Description>  (197) 
Inhibition of purified full-length human SYK pre-incubated for 30 mins at room temperature before Ulight-TK peptide substrate addition and measured 1 hr after substrate addition by cell free kinase assay

>  <BAO Format ID>  (197) 
BAO_0000357

>  <BAO Label>  (197) 
single protein format

>  <Assay Organism>  (197) 
Homo sapiens

>  <Target ChEMBL ID>  (197) 
CHEMBL2599

>  <Target Name>  (197) 
Tyrosine-protein kinase SYK

>  <Target Organism>  (197) 
Homo sapiens

>  <Target Type>  (197) 
SINGLE PROTEIN

>  <Document ChEMBL ID>  (197) 
CHEMBL3621069

>  <Source Description>  (197) 
Scientific Literature

>  <Document Journal>  (197) 
Bioorg Med Chem Lett

>  <Document Year>  (197) 
2015.0

>  <Active>  (197) 
1.0

>  <bits>  (197) 
<rdkit.DataStructs.cDataStructs.ExplicitBitVect object at 0x00000193F3407F40>

>  <Group>  (197) 
G2

$$$$

     RDKit          2D

 36 40  0  0  0  0  0  0  0  0999 V2000
    2.7760   -1.5000    0.0000 C   0  0  0  0  0  0  0  0  0  0  0  0
    2.7760    0.0000    0.0000 C   0  0  0  0  0  0  0  0  0  0  0  0
    2.7760    1.5000    0.0000 C   0  0  0  0  0  0  0  0  0  0  0  0
    4.2760    0.0000    0.0000 C   0  0  0  0  0  0  0  0  0  0  0  0
    1.2760    0.0000    0.0000 N   0  0  0  0  0  0  0  0  0  0  0  0
    0.3943    1.2135    0.0000 C   0  0  0  0  0  0  0  0  0  0  0  0
   -1.0323    0.7500    0.0000 C   0  0  0  0  0  0  0  0  0  0  0  0
   -2.3313    1.5000    0.0000 C   0  0  0  0  0  0  0  0  0  0  0  0
   -3.6304    0.7500    0.0000 C   0  0  0  0  0  0  0  0  0  0  0  0
   -4.9294    1.5000    0.0000 N   0  0  0  0  0  0  0  0  0  0  0  0
   -4.9294    3.0000    0.0000 C   0  0  0  0  0  0  0  0  0  0  0  0
   -3.6304    3.7500    0.0000 N   0  0  0  0  0  0  0  0  0  0  0  0
   -3.6304    5.2500    0.0000 C   0  0  0  0  0  0  0  0  0  0  0  0
   -2.3313    6.0000    0.0000 N   0  0  0  0  0  0  0  0  0  0  0  0
   -1.0323    5.2500    0.0000 C   0  0  0  0  0  0  0  0  0  0  0  0
   -1.0323    3.7500    0.0000 C   0  0  0  0  0  0  0  0  0  0  0  0
    0.2668    3.0000    0.0000 C   0  0  0  0  0  0  0  0  0  0  0  0
    1.5658    3.7500    0.0000 C   0  0  0  0  0  0  0  0  0  0  0  0
    1.5658    5.2500    0.0000 C   0  0  0  0  0  0  0  0  0  0  0  0
    0.2668    6.0000    0.0000 C   0  0  0  0  0  0  0  0  0  0  0  0
    0.2668    7.5000    0.0000 N   0  0  0  0  0  0  0  0  0  0  0  0
   -4.9294    6.0000    0.0000 N   0  0  0  0  0  0  0  0  0  0  0  0
   -6.2284    5.2500    0.0000 N   0  0  0  0  0  0  0  0  0  0  0  0
   -6.2284    3.7500    0.0000 C   0  0  0  0  0  0  0  0  0  0  0  0
   -7.5275    3.0000    0.0000 C   0  0  0  0  0  0  0  0  0  0  0  0
   -8.8265    3.7500    0.0000 N   0  0  0  0  0  0  0  0  0  0  0  0
   -7.5275    1.5000    0.0000 O   0  0  0  0  0  0  0  0  0  0  0  0
   -3.6304   -0.7500    0.0000 C   0  0  0  0  0  0  0  0  0  0  0  0
   -2.3313   -1.5000    0.0000 C   0  0  0  0  0  0  0  0  0  0  0  0
   -2.3313   -3.0000    0.0000 N   0  0  0  0  0  0  0  0  0  0  0  0
   -1.1178   -3.8817    0.0000 C   0  0  0  0  0  0  0  0  0  0  0  0
   -1.5813   -5.3083    0.0000 C   0  0  0  0  0  0  0  0  0  0  0  0
   -3.0813   -5.3083    0.0000 C   0  0  0  0  0  0  0  0  0  0  0  0
   -3.5449   -3.8817    0.0000 N   0  0  0  0  0  0  0  0  0  0  0  0
   -1.0323   -0.7500    0.0000 C   0  0  0  0  0  0  0  0  0  0  0  0
    0.3943   -1.2135    0.0000 N   0  0  0  0  0  0  0  0  0  0  0  0
  1  2  1  0
  2  3  1  0
  2  4  1  0
  2  5  1  0
  5  6  1  0
  6  7  2  0
  7  8  1  0
  8  9  2  0
  9 10  1  0
 10 11  1  0
 11 12  2  0
 12 13  1  0
 13 14  1  0
 15 14  1  1
 15 16  1  0
 16 17  1  0
 17 18  1  0
 18 19  1  0
 19 20  1  0
 20 21  1  1
 13 22  2  0
 22 23  1  0
 23 24  2  0
 24 25  1  0
 25 26  1  0
 25 27  2  0
  9 28  1  0
 28 29  2  0
 29 30  1  0
 30 31  1  0
 31 32  2  0
 32 33  1  0
 33 34  2  0
 29 35  1  0
 35 36  2  0
 36  5  1  0
 35  7  1  0
 24 11  1  0
 34 30  1  0
 20 15  1  0
M  END
>  <Compound_ID>  (198) 
CHEMBL3891358

>  <Molecule Name>  (198) 
nan

>  <Molecular Weight>  (198) 
489.59

>  <AlogP>  (198) 
2.69

>  <Smiles>  (198) 
CC(C)(C)n1cc2cc(Nc3nc(N[C@@H]4CCCC[C@@H]4N)nnc3C(N)=O)cc(-n3cccn3)c2n1

>  <Standard Type>  (198) 
IC50

>  <Standard Relation>  (198) 
'='

>  <Standard Units>  (198) 
nM

>  <Standard Value>  (198) 
0.61

>  <Assay ChEMBL ID>  (198) 
CHEMBL3887308

>  <Assay Description>  (198) 
Syk Kinase Inhibition Assay: The in vitro inhibitory activity of the compound of the present invention against Syk kinase activity was assayed under the following conditions: the purified human Syk protein used in the test were purchased from Carna Biosciences, Inc. For the inhibitory activity assay on the compound, the compound of the present invention was first serially diluted with dimethyl sulfoxide (DMSO). Next, the purified human Syk protein FL-Peptide 22 (final concentration: 1 uM) (Caliper Life Sciences, Inc.), magnesium chloride (final concentration: 5 mM), ATP (final concentration: 30 uM), and each DMSO solution of the compound of the present invention (final concentration of DMSO: 5%) were added into a buffer solution for reaction (20 mM tris-HCl pH 7.5, 20 mM NaCl, 2.5 mM DTT, 0.02% Tween-20, 1% glycerol, 0.01 mM Pefabloc), and the mixture was then incubated at 25° C. for 30 minutes to perform kinase reaction. The kinase reaction was stopped by the addition thereto of EDTA.

>  <BAO Format ID>  (198) 
BAO_0000357

>  <BAO Label>  (198) 
single protein format

>  <Assay Organism>  (198) 
Homo sapiens

>  <Target ChEMBL ID>  (198) 
CHEMBL2599

>  <Target Name>  (198) 
Tyrosine-protein kinase SYK

>  <Target Organism>  (198) 
Homo sapiens

>  <Target Type>  (198) 
SINGLE PROTEIN

>  <Document ChEMBL ID>  (198) 
CHEMBL3886160

>  <Source Description>  (198) 
BindingDB Database

>  <Document Journal>  (198) 
nan

>  <Document Year>  (198) 
2015.0

>  <Active>  (198) 
1.0

>  <bits>  (198) 
<rdkit.DataStructs.cDataStructs.ExplicitBitVect object at 0x00000193F3404820>

>  <Group>  (198) 
G2

$$$$

     RDKit          2D

 29 32  0  0  0  0  0  0  0  0999 V2000
    0.7500   -6.4952    0.0000 C   0  0  0  0  0  0  0  0  0  0  0  0
    1.5000   -5.1962    0.0000 C   0  0  0  0  0  0  0  0  0  0  0  0
    0.7500   -3.8971    0.0000 C   0  0  0  0  0  0  0  0  0  0  0  0
    1.5000   -2.5981    0.0000 C   0  0  0  0  0  0  0  0  0  0  0  0
    0.7500   -1.2990    0.0000 C   0  0  0  0  0  0  0  0  0  0  0  0
    1.5000    0.0000    0.0000 C   0  0  0  0  0  0  0  0  0  0  0  0
    0.7500    1.2990    0.0000 C   0  0  0  0  0  0  0  0  0  0  0  0
    1.5000    2.5981    0.0000 N   0  0  0  0  0  0  0  0  0  0  0  0
    0.7500    3.8971    0.0000 C   0  0  0  0  0  0  0  0  0  0  0  0
   -0.7500    3.8971    0.0000 N   0  0  0  0  0  0  0  0  0  0  0  0
   -1.5000    5.1962    0.0000 C   0  0  0  0  0  0  0  0  0  0  0  0
   -1.5000    2.5981    0.0000 C   0  0  0  0  0  0  0  0  0  0  0  0
   -3.0000    2.5981    0.0000 O   0  0  0  0  0  0  0  0  0  0  0  0
   -0.7500    1.2990    0.0000 C   0  0  0  0  0  0  0  0  0  0  0  0
   -1.5000    0.0000    0.0000 C   0  0  0  0  0  0  0  0  0  0  0  0
   -3.0000    0.0000    0.0000 N   0  0  0  0  0  0  0  0  0  0  0  0
   -3.7500   -1.2990    0.0000 C   0  0  0  0  0  0  0  0  0  0  0  0
   -5.2500   -1.2990    0.0000 C   0  0  0  0  0  0  0  0  0  0  0  0
   -3.0000   -2.5981    0.0000 C   0  0  0  0  0  0  0  0  0  0  0  0
   -0.7500   -1.2990    0.0000 N   0  0  0  0  0  0  0  0  0  0  0  0
    3.0000   -2.5981    0.0000 C   0  0  0  0  0  0  0  0  0  0  0  0
    3.7500   -3.8971    0.0000 C   0  0  0  0  0  0  0  0  0  0  0  0
    3.0000   -5.1962    0.0000 C   0  0  0  0  0  0  0  0  0  0  0  0
    3.7500   -6.4952    0.0000 C   0  0  0  0  0  0  0  0  0  0  0  0
    3.0000   -7.7942    0.0000 C   0  0  0  0  0  0  0  0  0  0  0  0
    3.7500   -9.0933    0.0000 C   0  0  0  0  0  0  0  0  0  0  0  0
    5.2500   -9.0933    0.0000 N   0  0  0  0  0  0  0  0  0  0  0  0
    6.0000   -7.7942    0.0000 C   0  0  0  0  0  0  0  0  0  0  0  0
    5.2500   -6.4952    0.0000 C   0  0  0  0  0  0  0  0  0  0  0  0
  1  2  1  0
  2  3  2  0
  3  4  1  0
  4  5  1  0
  5  6  2  0
  6  7  1  0
  7  8  1  0
  8  9  2  0
  9 10  1  0
 10 11  1  0
 10 12  1  0
 12 13  2  0
 12 14  1  0
 14 15  1  0
 15 16  1  0
 16 17  1  0
 17 18  1  0
 17 19  1  0
 15 20  2  0
  4 21  2  0
 21 22  1  0
 22 23  2  0
 23 24  1  0
 24 25  1  0
 25 26  1  0
 26 27  1  0
 27 28  1  0
 28 29  1  0
 23  2  1  0
 29 24  1  0
 20  5  1  0
 14  7  2  0
M  END
>  <Compound_ID>  (199) 
CHEMBL3701527

>  <Molecule Name>  (199) 
nan

>  <Molecular Weight>  (199) 
391.52

>  <AlogP>  (199) 
3.59

>  <Smiles>  (199) 
Cc1cc(-c2cc3ncn(C)c(=O)c3c(NC(C)C)n2)ccc1C1CCNCC1

>  <Standard Type>  (199) 
IC50

>  <Standard Relation>  (199) 
'='

>  <Standard Units>  (199) 
nM

>  <Standard Value>  (199) 
89.0

>  <Assay ChEMBL ID>  (199) 
CHEMBL3705362

>  <Assay Description>  (199) 
Mobility-Shift kinase assay: Compounds of the examples provided herein were assessed for their ability to inhibit Syk kinase by utilizing Caliper Life Sciences' proprietary LabChip technology. The off-chip incubation mobility-shift kinase assay uses a microfluidic chip to measure the conversion of a fluorescent peptide substrate to a phosphorylated product. The reaction mixture, from a microtiter plate well, is introduced through a capillary sipper onto the chip, where the nonphosphorylated substrate and phosphorylated product are separated by electrophoresis and detected via laser induced fluorescence. The signature of the fluorescence signal over time reveals the extent of the reaction. The phosphorylated product migrates through the chip faster than the non-phosphorylated substrate, and signals from the two forms of the peptide appear as distinct peaks.

>  <BAO Format ID>  (199) 
BAO_0000357

>  <BAO Label>  (199) 
single protein format

>  <Assay Organism>  (199) 
Homo sapiens

>  <Target ChEMBL ID>  (199) 
CHEMBL2599

>  <Target Name>  (199) 
Tyrosine-protein kinase SYK

>  <Target Organism>  (199) 
Homo sapiens

>  <Target Type>  (199) 
SINGLE PROTEIN

>  <Document ChEMBL ID>  (199) 
CHEMBL3639055

>  <Source Description>  (199) 
BindingDB Database

>  <Document Journal>  (199) 
nan

>  <Document Year>  (199) 
2014.0

>  <Active>  (199) 
1.0

>  <bits>  (199) 
<rdkit.DataStructs.cDataStructs.ExplicitBitVect object at 0x00000193F34065E0>

>  <Group>  (199) 
G2

$$$$

     RDKit          2D

 27 30  0  0  0  0  0  0  0  0999 V2000
    5.0260   -1.2990    0.0000 C   0  0  0  0  0  0  0  0  0  0  0  0
    3.5260   -1.2990    0.0000 N   0  0  0  0  0  0  0  0  0  0  0  0
    2.7760    0.0000    0.0000 C   0  0  0  0  0  0  0  0  0  0  0  0
    3.5260    1.2990    0.0000 O   0  0  0  0  0  0  0  0  0  0  0  0
    1.2760    0.0000    0.0000 C   0  0  0  0  0  0  0  0  0  0  0  0
    0.3943    1.2135    0.0000 C   0  0  0  0  0  0  0  0  0  0  0  0
   -1.0323    0.7500    0.0000 C   0  0  0  0  0  0  0  0  0  0  0  0
   -2.3313    1.5000    0.0000 C   0  0  0  0  0  0  0  0  0  0  0  0
   -3.6304    0.7500    0.0000 C   0  0  0  0  0  0  0  0  0  0  0  0
   -4.9294    1.5000    0.0000 N   0  0  0  0  0  0  0  0  0  0  0  0
   -4.9294    3.0000    0.0000 C   0  0  0  0  0  0  0  0  0  0  0  0
   -3.6304    3.7500    0.0000 N   0  0  0  0  0  0  0  0  0  0  0  0
   -3.6304    5.2500    0.0000 C   0  0  0  0  0  0  0  0  0  0  0  0
   -4.9294    6.0000    0.0000 C   0  0  0  0  0  0  0  0  0  0  0  0
   -6.2284    5.2500    0.0000 C   0  0  0  0  0  0  0  0  0  0  0  0
   -7.5275    6.0000    0.0000 C   0  0  0  0  0  0  0  0  0  0  0  0
   -7.5275    7.5000    0.0000 C   0  0  0  0  0  0  0  0  0  0  0  0
   -8.8265    8.2500    0.0000 C   0  0  0  0  0  0  0  0  0  0  0  0
  -10.1256    7.5000    0.0000 C   0  0  0  0  0  0  0  0  0  0  0  0
  -10.1256    6.0000    0.0000 C   0  0  0  0  0  0  0  0  0  0  0  0
   -8.8265    5.2500    0.0000 N   0  0  0  0  0  0  0  0  0  0  0  0
   -6.2284    3.7500    0.0000 N   0  0  0  0  0  0  0  0  0  0  0  0
   -3.6304   -0.7500    0.0000 C   0  0  0  0  0  0  0  0  0  0  0  0
   -2.3313   -1.5000    0.0000 C   0  0  0  0  0  0  0  0  0  0  0  0
   -2.3313   -3.0000    0.0000 C   0  0  0  0  0  0  0  0  0  0  0  0
   -1.0323   -0.7500    0.0000 C   0  0  0  0  0  0  0  0  0  0  0  0
    0.3943   -1.2135    0.0000 N   0  0  0  0  0  0  0  0  0  0  0  0
  1  2  1  0
  2  3  1  0
  3  4  2  0
  3  5  1  0
  5  6  2  0
  6  7  1  0
  7  8  2  0
  8  9  1  0
  9 10  1  0
 10 11  1  0
 11 12  2  0
 12 13  1  0
 13 14  2  0
 14 15  1  0
 15 16  1  0
 16 17  2  0
 17 18  1  0
 18 19  2  0
 19 20  1  0
 20 21  2  0
 15 22  2  0
  9 23  2  0
 23 24  1  0
 24 25  1  0
 24 26  2  0
 26 27  1  0
 27  5  1  0
 26  7  1  0
 22 11  1  0
 21 16  1  0
M  END
>  <Compound_ID>  (200) 
CHEMBL3643817

>  <Molecule Name>  (200) 
nan

>  <Molecular Weight>  (200) 
358.41

>  <AlogP>  (200) 
3.43

>  <Smiles>  (200) 
CNC(=O)c1cc2cc(Nc3nccc(-c4ccccn4)n3)cc(C)c2[nH]1

>  <Standard Type>  (200) 
IC50

>  <Standard Relation>  (200) 
'='

>  <Standard Units>  (200) 
nM

>  <Standard Value>  (200) 
2.7

>  <Assay ChEMBL ID>  (200) 
CHEMBL3705803

>  <Assay Description>  (200) 
Kinase Glo Luminescence Kinase Assay: Recombinant human Syk (amino acids 342-635) was expressed as a fusion protein with an N-terminal GST tag, affinity-purified and deep-frozen at a concentration of approx. 50-100 uM in test buffer (25 mM HEPES pH7.5; 25 mM MgCl2; 5 mM MnCl2; 50 mM KCl; 0.2% BSA; 0.01% CHAPS; 100 uM Na3VO4; 0.5 mM DTT) and 10% glycerol at -80 C until use. The catalytic activity of the GST-Syk kinase fusion protein was determined using the Kinase Glo Luminescence Kinase test (Promega; V6712). In this homogeneous test the amount of ATP remaining after the kinase reaction is quantified by a luciferin-luciferase reaction using luminescence. The luminescence signal obtained correlates with the amount of ATP still present and thus correlates inversely with the activity of the protein kinase. The test compounds were dissolved in 100% DMSO at a concentration of 10 mM and diluted in DMSO to a concentration of 1 mM.

>  <BAO Format ID>  (200) 
BAO_0000357

>  <BAO Label>  (200) 
single protein format

>  <Assay Organism>  (200) 
Homo sapiens

>  <Target ChEMBL ID>  (200) 
CHEMBL2599

>  <Target Name>  (200) 
Tyrosine-protein kinase SYK

>  <Target Organism>  (200) 
Homo sapiens

>  <Target Type>  (200) 
SINGLE PROTEIN

>  <Document ChEMBL ID>  (200) 
CHEMBL3638486

>  <Source Description>  (200) 
BindingDB Database

>  <Document Journal>  (200) 
nan

>  <Document Year>  (200) 
2014.0

>  <Active>  (200) 
1.0

>  <bits>  (200) 
<rdkit.DataStructs.cDataStructs.ExplicitBitVect object at 0x00000193F3405FC0>

>  <Group>  (200) 
G2

$$$$

     RDKit          2D

 32 36  0  0  0  0  0  0  0  0999 V2000
    1.2990   -5.8573    0.0000 O   0  0  0  0  0  0  0  0  0  0  0  0
   -0.0000   -5.1073    0.0000 C   0  0  0  0  0  0  0  0  0  0  0  0
   -1.2990   -5.8573    0.0000 N   0  0  0  0  0  0  0  0  0  0  0  0
   -1.2990   -7.3573    0.0000 C   0  0  0  0  0  0  0  0  0  0  0  0
   -2.5981   -8.1073    0.0000 C   0  0  0  0  0  0  0  0  0  0  0  0
   -3.8971   -7.3573    0.0000 C   0  0  0  0  0  0  0  0  0  0  0  0
   -5.1962   -8.1073    0.0000 C   0  0  0  0  0  0  0  0  0  0  0  0
   -5.1962   -9.6073    0.0000 O   0  0  0  0  0  0  0  0  0  0  0  0
   -3.8971  -10.3573    0.0000 C   0  0  0  0  0  0  0  0  0  0  0  0
   -2.5981   -9.6073    0.0000 C   0  0  0  0  0  0  0  0  0  0  0  0
   -0.0000   -3.6073    0.0000 C   0  0  0  0  0  0  0  0  0  0  0  0
    1.2135   -2.7256    0.0000 C   0  0  0  0  0  0  0  0  0  0  0  0
    0.7500   -1.2990    0.0000 C   0  0  0  0  0  0  0  0  0  0  0  0
    1.5000    0.0000    0.0000 C   0  0  0  0  0  0  0  0  0  0  0  0
    0.7500    1.2990    0.0000 C   0  0  0  0  0  0  0  0  0  0  0  0
    1.5000    2.5981    0.0000 N   0  0  0  0  0  0  0  0  0  0  0  0
    3.0000    2.5981    0.0000 C   0  0  0  0  0  0  0  0  0  0  0  0
    3.7500    1.2990    0.0000 N   0  0  0  0  0  0  0  0  0  0  0  0
    5.2500    1.2990    0.0000 C   0  0  0  0  0  0  0  0  0  0  0  0
    6.0000    2.5981    0.0000 C   0  0  0  0  0  0  0  0  0  0  0  0
    5.2500    3.8971    0.0000 C   0  0  0  0  0  0  0  0  0  0  0  0
    6.0000    5.1962    0.0000 C   0  0  0  0  0  0  0  0  0  0  0  0
    7.5000    5.1962    0.0000 C   0  0  0  0  0  0  0  0  0  0  0  0
    8.2500    6.4952    0.0000 C   0  0  0  0  0  0  0  0  0  0  0  0
    7.5000    7.7942    0.0000 C   0  0  0  0  0  0  0  0  0  0  0  0
    6.0000    7.7942    0.0000 C   0  0  0  0  0  0  0  0  0  0  0  0
    5.2500    6.4952    0.0000 N   0  0  0  0  0  0  0  0  0  0  0  0
    3.7500    3.8971    0.0000 N   0  0  0  0  0  0  0  0  0  0  0  0
   -0.7500    1.2990    0.0000 C   0  0  0  0  0  0  0  0  0  0  0  0
   -1.5000    0.0000    0.0000 C   0  0  0  0  0  0  0  0  0  0  0  0
   -0.7500   -1.2990    0.0000 C   0  0  0  0  0  0  0  0  0  0  0  0
   -1.2135   -2.7256    0.0000 N   0  0  0  0  0  0  0  0  0  0  0  0
  1  2  2  0
  2  3  1  0
  3  4  1  0
  4  5  1  0
  5  6  1  0
  6  7  1  0
  7  8  1  0
  8  9  1  0
  9 10  1  0
  2 11  1  0
 11 12  2  0
 12 13  1  0
 13 14  2  0
 14 15  1  0
 15 16  1  0
 16 17  1  0
 17 18  2  0
 18 19  1  0
 19 20  2  0
 20 21  1  0
 21 22  1  0
 22 23  2  0
 23 24  1  0
 24 25  2  0
 25 26  1  0
 26 27  2  0
 21 28  2  0
 15 29  2  0
 29 30  1  0
 30 31  2  0
 31 32  1  0
 10  5  1  0
 32 11  1  0
 31 13  1  0
 28 17  1  0
 27 22  1  0
M  END
>  <Compound_ID>  (201) 
CHEMBL3641637

>  <Molecule Name>  (201) 
nan

>  <Molecular Weight>  (201) 
428.5

>  <AlogP>  (201) 
3.92

>  <Smiles>  (201) 
O=C(NCC1CCOCC1)c1cc2cc(Nc3nccc(-c4ccccn4)n3)ccc2[nH]1

>  <Standard Type>  (201) 
IC50

>  <Standard Relation>  (201) 
'='

>  <Standard Units>  (201) 
nM

>  <Standard Value>  (201) 
12.3

>  <Assay ChEMBL ID>  (201) 
CHEMBL3705803

>  <Assay Description>  (201) 
Kinase Glo Luminescence Kinase Assay: Recombinant human Syk (amino acids 342-635) was expressed as a fusion protein with an N-terminal GST tag, affinity-purified and deep-frozen at a concentration of approx. 50-100 uM in test buffer (25 mM HEPES pH7.5; 25 mM MgCl2; 5 mM MnCl2; 50 mM KCl; 0.2% BSA; 0.01% CHAPS; 100 uM Na3VO4; 0.5 mM DTT) and 10% glycerol at -80 C until use. The catalytic activity of the GST-Syk kinase fusion protein was determined using the Kinase Glo Luminescence Kinase test (Promega; V6712). In this homogeneous test the amount of ATP remaining after the kinase reaction is quantified by a luciferin-luciferase reaction using luminescence. The luminescence signal obtained correlates with the amount of ATP still present and thus correlates inversely with the activity of the protein kinase. The test compounds were dissolved in 100% DMSO at a concentration of 10 mM and diluted in DMSO to a concentration of 1 mM.

>  <BAO Format ID>  (201) 
BAO_0000357

>  <BAO Label>  (201) 
single protein format

>  <Assay Organism>  (201) 
Homo sapiens

>  <Target ChEMBL ID>  (201) 
CHEMBL2599

>  <Target Name>  (201) 
Tyrosine-protein kinase SYK

>  <Target Organism>  (201) 
Homo sapiens

>  <Target Type>  (201) 
SINGLE PROTEIN

>  <Document ChEMBL ID>  (201) 
CHEMBL3638486

>  <Source Description>  (201) 
BindingDB Database

>  <Document Journal>  (201) 
nan

>  <Document Year>  (201) 
2014.0

>  <Active>  (201) 
1.0

>  <bits>  (201) 
<rdkit.DataStructs.cDataStructs.ExplicitBitVect object at 0x00000193F34055B0>

>  <Group>  (201) 
G2

$$$$

     RDKit          2D

 35 38  0  0  0  0  0  0  0  0999 V2000
    3.0000    0.0000    0.0000 C   0  0  0  0  0  0  0  0  0  0  0  0
    1.5000    0.0000    0.0000 C   0  0  0  0  0  0  0  0  0  0  0  0
    0.7500   -1.2990    0.0000 C   0  0  0  0  0  0  0  0  0  0  0  0
   -0.7500   -1.2990    0.0000 C   0  0  0  0  0  0  0  0  0  0  0  0
   -1.5000   -2.5981    0.0000 N   0  0  0  0  0  0  0  0  0  0  0  0
   -3.0000   -2.5981    0.0000 C   0  0  0  0  0  0  0  0  0  0  0  0
   -3.7500   -1.2990    0.0000 N   0  0  0  0  0  0  0  0  0  0  0  0
   -5.2500   -1.2990    0.0000 C   0  0  0  0  0  0  0  0  0  0  0  0
   -6.0000   -2.5981    0.0000 C   0  0  0  0  0  0  0  0  0  0  0  0
   -5.2500   -3.8971    0.0000 C   0  0  0  0  0  0  0  0  0  0  0  0
   -6.0000   -5.1962    0.0000 C   0  0  0  0  0  0  0  0  0  0  0  0
   -6.7500   -6.4952    0.0000 F   0  0  0  0  0  0  0  0  0  0  0  0
   -7.2990   -4.4462    0.0000 F   0  0  0  0  0  0  0  0  0  0  0  0
   -4.7010   -5.9462    0.0000 F   0  0  0  0  0  0  0  0  0  0  0  0
   -3.7500   -3.8971    0.0000 N   0  0  0  0  0  0  0  0  0  0  0  0
   -1.5000    0.0000    0.0000 C   0  0  0  0  0  0  0  0  0  0  0  0
   -0.7500    1.2990    0.0000 C   0  0  0  0  0  0  0  0  0  0  0  0
   -1.5000    2.5981    0.0000 C   0  0  0  0  0  0  0  0  0  0  0  0
   -0.7500    3.8971    0.0000 C   0  0  0  0  0  0  0  0  0  0  0  0
   -1.5000    5.1962    0.0000 C   0  0  0  0  0  0  0  0  0  0  0  0
   -3.0000    5.1962    0.0000 C   0  0  0  0  0  0  0  0  0  0  0  0
   -3.7500    3.8971    0.0000 C   0  0  0  0  0  0  0  0  0  0  0  0
   -5.2500    3.8971    0.0000 S   0  0  0  0  0  0  0  0  0  0  0  0
   -5.2500    5.3971    0.0000 O   0  0  0  0  0  0  0  0  0  0  0  0
   -5.2500    2.3971    0.0000 O   0  0  0  0  0  0  0  0  0  0  0  0
   -6.7500    3.8971    0.0000 N   0  0  0  0  0  0  0  0  0  0  0  0
   -7.6317    2.6836    0.0000 C   0  0  0  0  0  0  0  0  0  0  0  0
   -9.0583    3.1471    0.0000 C   0  0  0  0  0  0  0  0  0  0  0  0
   -9.0583    4.6471    0.0000 C   0  0  0  0  0  0  0  0  0  0  0  0
   -7.6317    5.1106    0.0000 C   0  0  0  0  0  0  0  0  0  0  0  0
   -7.1682    6.5372    0.0000 C   0  0  0  0  0  0  0  0  0  0  0  0
   -5.7009    6.8491    0.0000 O   0  0  0  0  0  0  0  0  0  0  0  0
   -8.1718    7.6519    0.0000 O   0  0  0  0  0  0  0  0  0  0  0  0
   -3.0000    2.5981    0.0000 C   0  0  0  0  0  0  0  0  0  0  0  0
    0.7500    1.2990    0.0000 C   0  0  0  0  0  0  0  0  0  0  0  0
  1  2  1  0
  2  3  2  0
  3  4  1  0
  4  5  1  0
  5  6  1  0
  6  7  2  0
  7  8  1  0
  8  9  2  0
  9 10  1  0
 10 11  1  0
 11 12  1  0
 11 13  1  0
 11 14  1  0
 10 15  2  0
  4 16  2  0
 16 17  1  0
 17 18  1  0
 18 19  2  0
 19 20  1  0
 20 21  2  0
 21 22  1  0
 22 23  1  0
 23 24  2  0
 23 25  2  0
 23 26  1  0
 26 27  1  0
 27 28  1  0
 28 29  1  0
 29 30  1  0
 30 31  1  6
 31 32  2  0
 31 33  1  0
 22 34  2  0
 17 35  2  0
 35  2  1  0
 15  6  1  0
 34 18  1  0
 30 26  1  0
M  END
>  <Compound_ID>  (202) 
CHEMBL3909781

>  <Molecule Name>  (202) 
nan

>  <Molecular Weight>  (202) 
506.51

>  <AlogP>  (202) 
4.45

>  <Smiles>  (202) 
Cc1cc(Nc2nccc(C(F)(F)F)n2)cc(-c2cccc(S(=O)(=O)N3CCC[C@@H]3C(=O)O)c2)c1

>  <Standard Type>  (202) 
IC50

>  <Standard Relation>  (202) 
'='

>  <Standard Units>  (202) 
nM

>  <Standard Value>  (202) 
30.7

>  <Assay ChEMBL ID>  (202) 
CHEMBL3888530

>  <Assay Description>  (202) 
Homogeneous Time-Resolved Fluorescence (HTRF) Assay: A recombinant GST-hSYK fusion protein was used to measure potency of compounds to inhibit human Syk activity. The recombinant human GST-SYK (Carna Biosciences #08-176) (5 μM final concentration) was incubated with various concentrations of the inhibitor diluted in DMSO (0.1% final concentration) for 10 minutes at room temperature in 15 mM Tris-HCl (pH 7.5), 0.01% tween 20, 2 mM DTT in 384 well plate format. To initiate the reaction the biotinylated substrate peptide (250 nM final concentration) that contains the phosphorylation site for Syk was added with magnesium (5 mM final concentration) and ATP (25 μM final concentration). Final volume of the reaction was 10 μL. Phosphorylation of the peptide was allowed to proceed for 45' at room temperature. To quench the reaction and detect the phosphorylated product, 2 nM of a Europium-anti-phosphotyrosine antibody (Perkin Elmer #AD0161) and 70 nM SA-APC (Perkin-Elmer #CR130-100) were added together in 15 mM Tris pH 7.5, 40 mM EDTA, 0.01% tween 20. Final volume of the quenching solution was 10 μL. The resulting HTRF signal was measured after 30 minutes on an EnVision (Perkin-Elmer) reader using a time-resolved fluorescence protocol.

>  <BAO Format ID>  (202) 
BAO_0000357

>  <BAO Label>  (202) 
single protein format

>  <Assay Organism>  (202) 
Homo sapiens

>  <Target ChEMBL ID>  (202) 
CHEMBL2599

>  <Target Name>  (202) 
Tyrosine-protein kinase SYK

>  <Target Organism>  (202) 
Homo sapiens

>  <Target Type>  (202) 
SINGLE PROTEIN

>  <Document ChEMBL ID>  (202) 
CHEMBL3886750

>  <Source Description>  (202) 
BindingDB Database

>  <Document Journal>  (202) 
nan

>  <Document Year>  (202) 
2016.0

>  <Active>  (202) 
1.0

>  <bits>  (202) 
<rdkit.DataStructs.cDataStructs.ExplicitBitVect object at 0x00000193F34062D0>

>  <Group>  (202) 
G2

$$$$

     RDKit          2D

 38 42  0  0  0  0  0  0  0  0999 V2000
   -7.0288    6.4197    0.0000 C   0  0  0  0  0  0  0  0  0  0  0  0
   -8.0325    5.3050    0.0000 C   0  0  0  0  0  0  0  0  0  0  0  0
   -9.0362    4.1902    0.0000 C   0  0  0  0  0  0  0  0  0  0  0  0
   -9.1472    6.3086    0.0000 C   0  0  0  0  0  0  0  0  0  0  0  0
   -6.9177    4.3013    0.0000 C   0  0  0  0  0  0  0  0  0  0  0  0
   -5.4912    4.7648    0.0000 C   0  0  0  0  0  0  0  0  0  0  0  0
   -4.3764    3.7611    0.0000 C   0  0  0  0  0  0  0  0  0  0  0  0
   -4.6883    2.2939    0.0000 C   0  0  0  0  0  0  0  0  0  0  0  0
   -3.5736    1.2902    0.0000 N   0  0  0  0  0  0  0  0  0  0  0  0
   -2.1470    1.7537    0.0000 C   0  0  0  0  0  0  0  0  0  0  0  0
   -1.8351    3.2209    0.0000 N   0  0  0  0  0  0  0  0  0  0  0  0
   -0.4086    3.6844    0.0000 C   0  0  0  0  0  0  0  0  0  0  0  0
   -0.0967    5.1517    0.0000 C   0  0  0  0  0  0  0  0  0  0  0  0
    1.3299    5.6152    0.0000 C   0  0  0  0  0  0  0  0  0  0  0  0
    1.6418    7.0824    0.0000 C   0  0  0  0  0  0  0  0  0  0  0  0
    0.5271    8.0861    0.0000 C   0  0  0  0  0  0  0  0  0  0  0  0
   -0.8995    7.6226    0.0000 C   0  0  0  0  0  0  0  0  0  0  0  0
   -2.0143    8.6263    0.0000 N   0  0  0  0  0  0  0  0  0  0  0  0
   -1.7024   10.0935    0.0000 C   0  0  0  0  0  0  0  0  0  0  0  0
   -0.2758   10.5570    0.0000 O   0  0  0  0  0  0  0  0  0  0  0  0
   -2.8171   11.0972    0.0000 C   0  0  0  0  0  0  0  0  0  0  0  0
   -2.5052   12.5644    0.0000 C   0  0  0  0  0  0  0  0  0  0  0  0
   -3.6200   13.5681    0.0000 C   0  0  0  0  0  0  0  0  0  0  0  0
   -5.0465   13.1046    0.0000 C   0  0  0  0  0  0  0  0  0  0  0  0
   -6.1613   14.1083    0.0000 C   0  0  0  0  0  0  0  0  0  0  0  0
   -7.5878   13.6448    0.0000 O   0  0  0  0  0  0  0  0  0  0  0  0
   -5.8494   15.5755    0.0000 O   0  0  0  0  0  0  0  0  0  0  0  0
   -5.3584   11.6374    0.0000 C   0  0  0  0  0  0  0  0  0  0  0  0
   -4.2437   10.6337    0.0000 C   0  0  0  0  0  0  0  0  0  0  0  0
   -1.2114    6.1554    0.0000 C   0  0  0  0  0  0  0  0  0  0  0  0
    0.7062    2.6807    0.0000 C   0  0  0  0  0  0  0  0  0  0  0  0
    0.3943    1.2135    0.0000 N   0  0  0  0  0  0  0  0  0  0  0  0
    1.2760    0.0000    0.0000 C   0  0  0  0  0  0  0  0  0  0  0  0
    0.3943   -1.2135    0.0000 C   0  0  0  0  0  0  0  0  0  0  0  0
   -1.0323   -0.7500    0.0000 N   0  0  0  0  0  0  0  0  0  0  0  0
   -1.0323    0.7500    0.0000 C   0  0  0  0  0  0  0  0  0  0  0  0
   -6.1149    1.8303    0.0000 C   0  0  0  0  0  0  0  0  0  0  0  0
   -7.2296    2.8340    0.0000 C   0  0  0  0  0  0  0  0  0  0  0  0
  1  2  1  0
  2  3  1  0
  2  4  1  0
  2  5  1  0
  5  6  2  0
  6  7  1  0
  7  8  2  0
  8  9  1  0
  9 10  1  0
 10 11  2  0
 11 12  1  0
 12 13  1  0
 13 14  2  0
 14 15  1  0
 15 16  2  0
 16 17  1  0
 17 18  1  0
 18 19  1  0
 19 20  2  0
 19 21  1  0
 21 22  2  0
 22 23  1  0
 23 24  2  0
 24 25  1  0
 25 26  2  0
 25 27  1  0
 24 28  1  0
 28 29  2  0
 17 30  2  0
 12 31  2  0
 31 32  1  0
 32 33  1  0
 33 34  2  0
 34 35  1  0
 35 36  2  0
  8 37  1  0
 37 38  2  0
 38  5  1  0
 36 10  1  0
 30 13  1  0
 36 32  1  0
 29 21  1  0
M  END
>  <Compound_ID>  (203) 
CHEMBL3264994

>  <Molecule Name>  (203) 
nan

>  <Molecular Weight>  (203) 
505.58

>  <AlogP>  (203) 
6.39

>  <Smiles>  (203) 
CC(C)(C)c1ccc(Nc2nc(-c3cccc(NC(=O)c4ccc(C(=O)O)cc4)c3)cn3ccnc23)cc1

>  <Standard Type>  (203) 
IC50

>  <Standard Relation>  (203) 
'='

>  <Standard Units>  (203) 
nM

>  <Standard Value>  (203) 
65.0

>  <Assay ChEMBL ID>  (203) 
CHEMBL3270296

>  <Assay Description>  (203) 
Inhibition of full length Syk (unknown origin) using biotinylated peptide substrate

>  <BAO Format ID>  (203) 
BAO_0000357

>  <BAO Label>  (203) 
single protein format

>  <Assay Organism>  (203) 
Homo sapiens

>  <Target ChEMBL ID>  (203) 
CHEMBL2599

>  <Target Name>  (203) 
Tyrosine-protein kinase SYK

>  <Target Organism>  (203) 
Homo sapiens

>  <Target Type>  (203) 
SINGLE PROTEIN

>  <Document ChEMBL ID>  (203) 
CHEMBL3259702

>  <Source Description>  (203) 
Scientific Literature

>  <Document Journal>  (203) 
J Med Chem

>  <Document Year>  (203) 
2014.0

>  <Active>  (203) 
1.0

>  <bits>  (203) 
<rdkit.DataStructs.cDataStructs.ExplicitBitVect object at 0x00000193F3406FF0>

>  <Group>  (203) 
G2

$$$$

     RDKit          2D

 27 30  0  0  0  0  0  0  0  0999 V2000
    3.0000    0.0000    0.0000 C   0  0  0  0  0  0  0  0  0  0  0  0
    1.5000    0.0000    0.0000 C   0  0  0  0  0  0  0  0  0  0  0  0
    0.7500   -1.2990    0.0000 C   0  0  0  0  0  0  0  0  0  0  0  0
   -0.7500   -1.2990    0.0000 C   0  0  0  0  0  0  0  0  0  0  0  0
   -1.5000   -2.5981    0.0000 C   0  0  0  0  0  0  0  0  0  0  0  0
   -1.5000    0.0000    0.0000 C   0  0  0  0  0  0  0  0  0  0  0  0
   -0.7500    1.2990    0.0000 C   0  0  0  0  0  0  0  0  0  0  0  0
   -1.5000    2.5981    0.0000 N   0  0  0  0  0  0  0  0  0  0  0  0
   -0.7500    3.8971    0.0000 C   0  0  0  0  0  0  0  0  0  0  0  0
    0.7500    3.8971    0.0000 N   0  0  0  0  0  0  0  0  0  0  0  0
    1.5000    5.1962    0.0000 C   0  0  0  0  0  0  0  0  0  0  0  0
    0.7500    6.4952    0.0000 C   0  0  0  0  0  0  0  0  0  0  0  0
   -0.7500    6.4952    0.0000 C   0  0  0  0  0  0  0  0  0  0  0  0
   -1.5000    7.7942    0.0000 N   0  0  0  0  0  0  0  0  0  0  0  0
   -2.9918    7.9510    0.0000 C   0  0  0  0  0  0  0  0  0  0  0  0
   -3.3037    9.4182    0.0000 C   0  0  0  0  0  0  0  0  0  0  0  0
   -4.6740   10.0283    0.0000 C   0  0  0  0  0  0  0  0  0  0  0  0
   -2.0046   10.1682    0.0000 C   0  0  0  0  0  0  0  0  0  0  0  0
   -1.8478   11.6600    0.0000 C   0  0  0  0  0  0  0  0  0  0  0  0
   -0.4775   12.2701    0.0000 N   0  0  0  0  0  0  0  0  0  0  0  0
    0.9229   11.7326    0.0000 C   0  0  0  0  0  0  0  0  0  0  0  0
    1.4604   13.1329    0.0000 C   0  0  0  0  0  0  0  0  0  0  0  0
    2.8307   13.7431    0.0000 O   0  0  0  0  0  0  0  0  0  0  0  0
    0.0601   13.6705    0.0000 C   0  0  0  0  0  0  0  0  0  0  0  0
   -0.8899    9.1645    0.0000 C   0  0  0  0  0  0  0  0  0  0  0  0
   -1.5000    5.1962    0.0000 N   0  0  0  0  0  0  0  0  0  0  0  0
    0.7500    1.2990    0.0000 C   0  0  0  0  0  0  0  0  0  0  0  0
  1  2  1  0
  2  3  2  0
  3  4  1  0
  4  5  1  0
  4  6  2  0
  6  7  1  0
  7  8  1  0
  8  9  1  0
  9 10  2  0
 10 11  1  0
 11 12  2  0
 12 13  1  0
 13 14  1  0
 14 15  1  0
 15 16  2  0
 16 17  1  0
 16 18  1  0
 18 19  1  0
 19 20  1  0
 20 21  1  0
 21 22  1  0
 22 23  1  0
 22 24  1  0
 18 25  2  0
 13 26  2  0
  7 27  2  0
 27  2  1  0
 26  9  1  0
 25 14  1  0
 24 20  1  0
M  END
>  <Compound_ID>  (204) 
CHEMBL3622926

>  <Molecule Name>  (204) 
nan

>  <Molecular Weight>  (204) 
363.47

>  <AlogP>  (204) 
3.11

>  <Smiles>  (204) 
Cc1cc(C)cc(Nc2nccc(-n3cc(C)c(CN4CC(O)C4)c3)n2)c1

>  <Standard Type>  (204) 
IC50

>  <Standard Relation>  (204) 
'='

>  <Standard Units>  (204) 
nM

>  <Standard Value>  (204) 
5.4

>  <Assay ChEMBL ID>  (204) 
CHEMBL3627015

>  <Assay Description>  (204) 
Inhibition of purified full-length human SYK pre-incubated for 30 mins at room temperature before Ulight-TK peptide substrate addition and measured 1 hr after substrate addition by cell free kinase assay

>  <BAO Format ID>  (204) 
BAO_0000357

>  <BAO Label>  (204) 
single protein format

>  <Assay Organism>  (204) 
Homo sapiens

>  <Target ChEMBL ID>  (204) 
CHEMBL2599

>  <Target Name>  (204) 
Tyrosine-protein kinase SYK

>  <Target Organism>  (204) 
Homo sapiens

>  <Target Type>  (204) 
SINGLE PROTEIN

>  <Document ChEMBL ID>  (204) 
CHEMBL3621069

>  <Source Description>  (204) 
Scientific Literature

>  <Document Journal>  (204) 
Bioorg Med Chem Lett

>  <Document Year>  (204) 
2015.0

>  <Active>  (204) 
1.0

>  <bits>  (204) 
<rdkit.DataStructs.cDataStructs.ExplicitBitVect object at 0x00000193F3405690>

>  <Group>  (204) 
G2

$$$$

     RDKit          2D

 29 33  0  0  0  0  0  0  0  0999 V2000
   -2.0143    8.6263    0.0000 N   0  0  0  0  0  0  0  0  0  0  0  0
   -0.8995    7.6226    0.0000 C   0  0  0  0  0  0  0  0  0  0  0  0
    0.5271    8.0861    0.0000 C   0  0  0  0  0  0  0  0  0  0  0  0
    1.6418    7.0824    0.0000 N   0  0  0  0  0  0  0  0  0  0  0  0
    1.3299    5.6152    0.0000 C   0  0  0  0  0  0  0  0  0  0  0  0
   -0.0967    5.1517    0.0000 C   0  0  0  0  0  0  0  0  0  0  0  0
   -0.4086    3.6844    0.0000 C   0  0  0  0  0  0  0  0  0  0  0  0
    0.7062    2.6807    0.0000 C   0  0  0  0  0  0  0  0  0  0  0  0
    0.3943    1.2135    0.0000 N   0  0  0  0  0  0  0  0  0  0  0  0
    1.2760    0.0000    0.0000 C   0  0  0  0  0  0  0  0  0  0  0  0
    0.3943   -1.2135    0.0000 C   0  0  0  0  0  0  0  0  0  0  0  0
   -1.0323   -0.7500    0.0000 N   0  0  0  0  0  0  0  0  0  0  0  0
   -1.0323    0.7500    0.0000 C   0  0  0  0  0  0  0  0  0  0  0  0
   -2.1470    1.7537    0.0000 C   0  0  0  0  0  0  0  0  0  0  0  0
   -3.5736    1.2902    0.0000 N   0  0  0  0  0  0  0  0  0  0  0  0
   -4.6883    2.2939    0.0000 C   0  0  0  0  0  0  0  0  0  0  0  0
   -4.3764    3.7611    0.0000 C   0  0  0  0  0  0  0  0  0  0  0  0
   -5.4912    4.7648    0.0000 C   0  0  0  0  0  0  0  0  0  0  0  0
   -6.9177    4.3013    0.0000 C   0  0  0  0  0  0  0  0  0  0  0  0
   -8.0325    5.3050    0.0000 N   0  0  0  0  0  0  0  0  0  0  0  0
   -7.7206    6.7722    0.0000 C   0  0  0  0  0  0  0  0  0  0  0  0
   -8.8353    7.7759    0.0000 C   0  0  0  0  0  0  0  0  0  0  0  0
  -10.2619    7.3123    0.0000 O   0  0  0  0  0  0  0  0  0  0  0  0
  -10.5738    5.8451    0.0000 C   0  0  0  0  0  0  0  0  0  0  0  0
   -9.4590    4.8414    0.0000 C   0  0  0  0  0  0  0  0  0  0  0  0
   -7.2296    2.8340    0.0000 C   0  0  0  0  0  0  0  0  0  0  0  0
   -6.1149    1.8303    0.0000 C   0  0  0  0  0  0  0  0  0  0  0  0
   -1.8351    3.2209    0.0000 N   0  0  0  0  0  0  0  0  0  0  0  0
   -1.2114    6.1554    0.0000 C   0  0  0  0  0  0  0  0  0  0  0  0
  1  2  1  0
  2  3  2  0
  3  4  1  0
  4  5  2  0
  5  6  1  0
  6  7  1  0
  7  8  2  0
  8  9  1  0
  9 10  1  0
 10 11  2  0
 11 12  1  0
 12 13  2  0
 13 14  1  0
 14 15  1  0
 15 16  1  0
 16 17  2  0
 17 18  1  0
 18 19  2  0
 19 20  1  0
 20 21  1  0
 21 22  1  0
 22 23  1  0
 23 24  1  0
 24 25  1  0
 19 26  1  0
 26 27  2  0
 14 28  2  0
  6 29  2  0
 29  2  1  0
 28  7  1  0
 13  9  1  0
 27 16  1  0
 25 20  1  0
M  END
>  <Compound_ID>  (205) 
CHEMBL3978560

>  <Molecule Name>  (205) 
nan

>  <Molecular Weight>  (205) 
387.45

>  <AlogP>  (205) 
2.95

>  <Smiles>  (205) 
Nc1cncc(-c2cn3ccnc3c(Nc3ccc(N4CCOCC4)cc3)n2)c1

>  <Standard Type>  (205) 
IC50

>  <Standard Relation>  (205) 
'='

>  <Standard Units>  (205) 
nM

>  <Standard Value>  (205) 
31.0

>  <Assay ChEMBL ID>  (205) 
CHEMBL3888106

>  <Assay Description>  (205) 
High Throughput Syk Biochemical Assay: Syk activity was measured using KinEASE (Cisbio), a time-resolved fluorescence resonance energy transfer (TR-FRET) immunoassay. In this assay, Syk-catalyzes the phosphorylation of a XL665-labeled peptide substrate. Europium conjugated phospho-tyrosine specific antibody binds the resulting phosphorylated peptide. Formation of phosphorylated peptide is quantified by TR-FRET with Europium as the donor and XL665 the acceptor in a 2-step endpoint assay. In brief, test compounds serially diluted in DMSO were delivered into Corning white, low volume, non-binding 384 well plates using the Echo 550 acoustic liquid dispenser (Labcyte®). Syk enzyme and substrates were dispensed into assay plates using a Multi-Flo (Bio-Tek Instruments). The standard 5 μL reaction mixture contained 20 μM ATP, 1 μM biotinylated peptide, 0.015 nM of Syk in reaction buffer (50 mM Hepes, pH 7.0, 0.02% NaN3, 0.1% BSA, 0.1 mM Orthovanadate, 5 mM MgCl2, 1 mM DTT, 0.025% NP-40). After 30 minutes of incubati

>  <BAO Format ID>  (205) 
BAO_0000357

>  <BAO Label>  (205) 
single protein format

>  <Assay Organism>  (205) 
Homo sapiens

>  <Target ChEMBL ID>  (205) 
CHEMBL2599

>  <Target Name>  (205) 
Tyrosine-protein kinase SYK

>  <Target Organism>  (205) 
Homo sapiens

>  <Target Type>  (205) 
SINGLE PROTEIN

>  <Document ChEMBL ID>  (205) 
CHEMBL3886190

>  <Source Description>  (205) 
BindingDB Database

>  <Document Journal>  (205) 
nan

>  <Document Year>  (205) 
2016.0

>  <Active>  (205) 
1.0

>  <bits>  (205) 
<rdkit.DataStructs.cDataStructs.ExplicitBitVect object at 0x00000193F3404740>

>  <Group>  (205) 
G2

$$$$

     RDKit          2D

 29 32  0  0  0  0  0  0  0  0999 V2000
    0.6114   -5.0395    0.0000 N   0  0  0  0  0  0  0  0  0  0  0  0
    0.3509   -3.5623    0.0000 C   0  0  0  0  0  0  0  0  0  0  0  0
   -1.0586   -3.0492    0.0000 O   0  0  0  0  0  0  0  0  0  0  0  0
    1.5000   -2.5981    0.0000 C   0  0  0  0  0  0  0  0  0  0  0  0
    0.7500   -1.2990    0.0000 C   0  0  0  0  0  0  0  0  0  0  0  0
    1.5000    0.0000    0.0000 C   0  0  0  0  0  0  0  0  0  0  0  0
    0.7500    1.2990    0.0000 C   0  0  0  0  0  0  0  0  0  0  0  0
   -0.7500    1.2990    0.0000 C   0  0  0  0  0  0  0  0  0  0  0  0
   -1.5000    0.0000    0.0000 C   0  0  0  0  0  0  0  0  0  0  0  0
   -3.0000    0.0000    0.0000 C   0  0  0  0  0  0  0  0  0  0  0  0
   -3.7500    1.2990    0.0000 C   0  0  0  0  0  0  0  0  0  0  0  0
   -5.2500    1.2990    0.0000 C   0  0  0  0  0  0  0  0  0  0  0  0
   -6.0000    0.0000    0.0000 C   0  0  0  0  0  0  0  0  0  0  0  0
   -5.2500   -1.2990    0.0000 C   0  0  0  0  0  0  0  0  0  0  0  0
   -6.0000   -2.5981    0.0000 N   0  0  0  0  0  0  0  0  0  0  0  0
   -7.5000   -2.5981    0.0000 C   0  0  0  0  0  0  0  0  0  0  0  0
   -8.2500   -1.2990    0.0000 N   0  0  0  0  0  0  0  0  0  0  0  0
   -9.7500   -1.2990    0.0000 C   0  0  0  0  0  0  0  0  0  0  0  0
  -10.5000   -2.5981    0.0000 C   0  0  0  0  0  0  0  0  0  0  0  0
   -9.7500   -3.8971    0.0000 C   0  0  0  0  0  0  0  0  0  0  0  0
  -10.5000   -5.1962    0.0000 C   0  0  0  0  0  0  0  0  0  0  0  0
  -11.2500   -6.4952    0.0000 F   0  0  0  0  0  0  0  0  0  0  0  0
  -11.7990   -4.4462    0.0000 F   0  0  0  0  0  0  0  0  0  0  0  0
   -9.2010   -5.9462    0.0000 F   0  0  0  0  0  0  0  0  0  0  0  0
   -8.2500   -3.8971    0.0000 N   0  0  0  0  0  0  0  0  0  0  0  0
   -3.7500   -1.2990    0.0000 C   0  0  0  0  0  0  0  0  0  0  0  0
   -0.7500   -1.2990    0.0000 C   0  0  0  0  0  0  0  0  0  0  0  0
    2.6491   -3.5623    0.0000 C   0  0  0  0  0  0  0  0  0  0  0  0
    2.9095   -2.0850    0.0000 C   0  0  0  0  0  0  0  0  0  0  0  0
  1  2  1  0
  2  3  2  0
  2  4  1  0
  4  5  1  0
  5  6  2  0
  6  7  1  0
  7  8  2  0
  8  9  1  0
  9 10  1  0
 10 11  2  0
 11 12  1  0
 12 13  2  0
 13 14  1  0
 14 15  1  0
 15 16  1  0
 16 17  2  0
 17 18  1  0
 18 19  2  0
 19 20  1  0
 20 21  1  0
 21 22  1  0
 21 23  1  0
 21 24  1  0
 20 25  2  0
 14 26  2  0
  9 27  2  0
  4 28  1  0
 28 29  1  0
 29  4  1  0
 27  5  1  0
 26 10  1  0
 25 16  1  0
M  END
>  <Compound_ID>  (206) 
CHEMBL3962706

>  <Molecule Name>  (206) 
nan

>  <Molecular Weight>  (206) 
398.39

>  <AlogP>  (206) 
4.42

>  <Smiles>  (206) 
NC(=O)C1(c2cccc(-c3cccc(Nc4nccc(C(F)(F)F)n4)c3)c2)CC1

>  <Standard Type>  (206) 
IC50

>  <Standard Relation>  (206) 
'='

>  <Standard Units>  (206) 
nM

>  <Standard Value>  (206) 
69.1

>  <Assay ChEMBL ID>  (206) 
CHEMBL3888530

>  <Assay Description>  (206) 
Homogeneous Time-Resolved Fluorescence (HTRF) Assay: A recombinant GST-hSYK fusion protein was used to measure potency of compounds to inhibit human Syk activity. The recombinant human GST-SYK (Carna Biosciences #08-176) (5 μM final concentration) was incubated with various concentrations of the inhibitor diluted in DMSO (0.1% final concentration) for 10 minutes at room temperature in 15 mM Tris-HCl (pH 7.5), 0.01% tween 20, 2 mM DTT in 384 well plate format. To initiate the reaction the biotinylated substrate peptide (250 nM final concentration) that contains the phosphorylation site for Syk was added with magnesium (5 mM final concentration) and ATP (25 μM final concentration). Final volume of the reaction was 10 μL. Phosphorylation of the peptide was allowed to proceed for 45' at room temperature. To quench the reaction and detect the phosphorylated product, 2 nM of a Europium-anti-phosphotyrosine antibody (Perkin Elmer #AD0161) and 70 nM SA-APC (Perkin-Elmer #CR130-100) were added together in 15 mM Tris pH 7.5, 40 mM EDTA, 0.01% tween 20. Final volume of the quenching solution was 10 μL. The resulting HTRF signal was measured after 30 minutes on an EnVision (Perkin-Elmer) reader using a time-resolved fluorescence protocol.

>  <BAO Format ID>  (206) 
BAO_0000357

>  <BAO Label>  (206) 
single protein format

>  <Assay Organism>  (206) 
Homo sapiens

>  <Target ChEMBL ID>  (206) 
CHEMBL2599

>  <Target Name>  (206) 
Tyrosine-protein kinase SYK

>  <Target Organism>  (206) 
Homo sapiens

>  <Target Type>  (206) 
SINGLE PROTEIN

>  <Document ChEMBL ID>  (206) 
CHEMBL3886750

>  <Source Description>  (206) 
BindingDB Database

>  <Document Journal>  (206) 
nan

>  <Document Year>  (206) 
2016.0

>  <Active>  (206) 
1.0

>  <bits>  (206) 
<rdkit.DataStructs.cDataStructs.ExplicitBitVect object at 0x00000193F34078B0>

>  <Group>  (206) 
G2

$$$$

     RDKit          2D

 35 39  0  0  0  0  0  0  0  0999 V2000
    6.7759   -3.3051    0.0000 C   0  0  0  0  0  0  0  0  0  0  0  0
    5.2841   -3.4619    0.0000 C   0  0  0  0  0  0  0  0  0  0  0  0
    4.6740   -4.8322    0.0000 C   0  0  0  0  0  0  0  0  0  0  0  0
    6.0443   -5.4423    0.0000 O   0  0  0  0  0  0  0  0  0  0  0  0
    3.3037   -4.2221    0.0000 C   0  0  0  0  0  0  0  0  0  0  0  0
    2.0046   -4.9721    0.0000 N   0  0  0  0  0  0  0  0  0  0  0  0
    0.8899   -3.9684    0.0000 C   0  0  0  0  0  0  0  0  0  0  0  0
    1.5000   -2.5981    0.0000 C   0  0  0  0  0  0  0  0  0  0  0  0
    0.7500   -1.2990    0.0000 C   0  0  0  0  0  0  0  0  0  0  0  0
    1.5000    0.0000    0.0000 C   0  0  0  0  0  0  0  0  0  0  0  0
    0.7500    1.2990    0.0000 C   0  0  0  0  0  0  0  0  0  0  0  0
    1.5000    2.5981    0.0000 C   0  0  0  0  0  0  0  0  0  0  0  0
   -0.7500    1.2990    0.0000 C   0  0  0  0  0  0  0  0  0  0  0  0
   -1.5000    0.0000    0.0000 C   0  0  0  0  0  0  0  0  0  0  0  0
   -3.0000    0.0000    0.0000 N   0  0  0  0  0  0  0  0  0  0  0  0
   -3.7500    1.2990    0.0000 C   0  0  0  0  0  0  0  0  0  0  0  0
   -3.0000    2.5981    0.0000 C   0  0  0  0  0  0  0  0  0  0  0  0
   -3.7500    3.8971    0.0000 C   0  0  0  0  0  0  0  0  0  0  0  0
   -3.0000    5.1962    0.0000 C   0  0  0  0  0  0  0  0  0  0  0  0
   -3.0000    6.6962    0.0000 C   0  0  0  0  0  0  0  0  0  0  0  0
   -1.7010    5.9462    0.0000 C   0  0  0  0  0  0  0  0  0  0  0  0
   -5.2500    3.8971    0.0000 C   0  0  0  0  0  0  0  0  0  0  0  0
   -6.0000    2.5981    0.0000 C   0  0  0  0  0  0  0  0  0  0  0  0
   -5.2500    1.2990    0.0000 N   0  0  0  0  0  0  0  0  0  0  0  0
   -0.7500   -1.2990    0.0000 N   0  0  0  0  0  0  0  0  0  0  0  0
    2.9918   -2.7549    0.0000 S   0  0  0  0  0  0  0  0  0  0  0  0
    4.0639   -6.2025    0.0000 C   0  0  0  0  0  0  0  0  0  0  0  0
    2.5721   -6.3593    0.0000 C   0  0  0  0  0  0  0  0  0  0  0  0
    1.9620   -7.7296    0.0000 C   0  0  0  0  0  0  0  0  0  0  0  0
    2.8437   -8.9431    0.0000 C   0  0  0  0  0  0  0  0  0  0  0  0
    2.2335  -10.3135    0.0000 C   0  0  0  0  0  0  0  0  0  0  0  0
    0.7418  -10.4703    0.0000 N   0  0  0  0  0  0  0  0  0  0  0  0
    3.1152  -11.5270    0.0000 O   0  0  0  0  0  0  0  0  0  0  0  0
    4.3354   -8.7864    0.0000 C   0  0  0  0  0  0  0  0  0  0  0  0
    4.9455   -7.4160    0.0000 C   0  0  0  0  0  0  0  0  0  0  0  0
  1  2  1  0
  2  3  1  0
  3  4  1  0
  3  5  1  0
  5  6  2  0
  6  7  1  0
  7  8  2  0
  8  9  1  0
  9 10  2  0
 10 11  1  0
 11 12  1  0
 11 13  2  0
 13 14  1  0
 14 15  1  0
 15 16  1  0
 16 17  2  0
 17 18  1  0
 18 19  1  0
 19 20  1  0
 20 21  1  0
 18 22  2  0
 22 23  1  0
 23 24  2  0
 14 25  2  0
  8 26  1  0
 27  3  1  6
 27 28  1  0
 28 29  1  0
 29 30  1  0
 30 31  1  1
 31 32  1  0
 31 33  2  0
 30 34  1  0
 34 35  1  0
 26  5  1  0
 35 27  1  0
 25  9  1  0
 24 16  1  0
 21 19  1  0
M  END
>  <Compound_ID>  (207) 
CHEMBL3911099

>  <Molecule Name>  (207) 
nan

>  <Molecular Weight>  (207) 
491.66

>  <AlogP>  (207) 
5.42

>  <Smiles>  (207) 
CCC(O)(c1ncc(-c2cc(C)cc(Nc3cc(C4CC4)ccn3)n2)s1)[C@H]1CC[C@H](C(N)=O)CC1

>  <Standard Type>  (207) 
IC50

>  <Standard Relation>  (207) 
'='

>  <Standard Units>  (207) 
nM

>  <Standard Value>  (207) 
3.1

>  <Assay ChEMBL ID>  (207) 
CHEMBL3887213

>  <Assay Description>  (207) 
Homogeneous Time-Resolved Fluorescence (HTRF) Assay: Homogeneous Time-Resolved Fluorescence (HTRF) assay for the recombinant human Syk enzyme: A recombinant GST-hSyk fusion protein was used to measure potency of compounds to inhibit human Syk activity. The recombinant human GST-Syk (Carna Biosciences #08- 176) (5pM final concentration) was incubated with variousconcentrations of the inhibitor diluted in DMSO (0.1% final concentration) for 10 minutes at room temperature in 15 mM Tris-HCl (pH 7.5), 0.01% tween 20, 2 mM DTT in 384 well plate format. To initiate the reaction the biotinylated substrate peptide (250 nM final concentration) that contains the phosphorylation site for Syk was added with magnesium (5 mM final concentration) and ATP (25 uM final concentration). Final volume of the reaction was 10 u . Phosphorylation of the peptide was allowed to proceed for 45 minutes at room temperature.

>  <BAO Format ID>  (207) 
BAO_0000357

>  <BAO Label>  (207) 
single protein format

>  <Assay Organism>  (207) 
Homo sapiens

>  <Target ChEMBL ID>  (207) 
CHEMBL2599

>  <Target Name>  (207) 
Tyrosine-protein kinase SYK

>  <Target Organism>  (207) 
Homo sapiens

>  <Target Type>  (207) 
SINGLE PROTEIN

>  <Document ChEMBL ID>  (207) 
CHEMBL3886215

>  <Source Description>  (207) 
BindingDB Database

>  <Document Journal>  (207) 
nan

>  <Document Year>  (207) 
2015.0

>  <Active>  (207) 
1.0

>  <bits>  (207) 
<rdkit.DataStructs.cDataStructs.ExplicitBitVect object at 0x00000193F3406C00>

>  <Group>  (207) 
G2

$$$$

     RDKit          2D

 24 27  0  0  0  0  0  0  0  0999 V2000
   -2.9499    4.2246    0.0000 Cl  0  0  0  0  0  0  0  0  0  0  0  0
   -1.8351    3.2209    0.0000 C   0  0  0  0  0  0  0  0  0  0  0  0
   -0.4086    3.6844    0.0000 C   0  0  0  0  0  0  0  0  0  0  0  0
    0.7062    2.6807    0.0000 N   0  0  0  0  0  0  0  0  0  0  0  0
    0.3943    1.2135    0.0000 C   0  0  0  0  0  0  0  0  0  0  0  0
    1.2760    0.0000    0.0000 N   0  0  0  0  0  0  0  0  0  0  0  0
    0.3943   -1.2135    0.0000 C   0  0  0  0  0  0  0  0  0  0  0  0
    0.8578   -2.6401    0.0000 C   0  0  0  0  0  0  0  0  0  0  0  0
   -0.1459   -3.7548    0.0000 C   0  0  0  0  0  0  0  0  0  0  0  0
    0.3177   -5.1814    0.0000 C   0  0  0  0  0  0  0  0  0  0  0  0
    1.7849   -5.4933    0.0000 C   0  0  0  0  0  0  0  0  0  0  0  0
    2.7886   -4.3786    0.0000 C   0  0  0  0  0  0  0  0  0  0  0  0
    2.3250   -2.9520    0.0000 C   0  0  0  0  0  0  0  0  0  0  0  0
   -1.0323   -0.7500    0.0000 N   0  0  0  0  0  0  0  0  0  0  0  0
   -1.0323    0.7500    0.0000 C   0  0  0  0  0  0  0  0  0  0  0  0
   -2.1470    1.7537    0.0000 C   0  0  0  0  0  0  0  0  0  0  0  0
   -3.5736    1.2902    0.0000 O   0  0  0  0  0  0  0  0  0  0  0  0
   -4.6883    2.2939    0.0000 C   0  0  0  0  0  0  0  0  0  0  0  0
   -6.1149    1.8303    0.0000 C   0  0  0  0  0  0  0  0  0  0  0  0
   -7.2296    2.8340    0.0000 C   0  0  0  0  0  0  0  0  0  0  0  0
   -8.6562    2.3705    0.0000 C   0  0  0  0  0  0  0  0  0  0  0  0
   -8.9681    0.9033    0.0000 N   0  0  0  0  0  0  0  0  0  0  0  0
   -7.8533   -0.1004    0.0000 C   0  0  0  0  0  0  0  0  0  0  0  0
   -6.4268    0.3631    0.0000 C   0  0  0  0  0  0  0  0  0  0  0  0
  1  2  1  0
  2  3  2  0
  3  4  1  0
  4  5  2  0
  5  6  1  0
  6  7  1  0
  7  8  1  0
  8  9  2  0
  9 10  1  0
 10 11  2  0
 11 12  1  0
 12 13  2  0
  7 14  2  0
 14 15  1  0
 15 16  2  0
 16 17  1  0
 17 18  1  0
 18 19  1  0
 19 20  1  0
 20 21  1  0
 21 22  1  0
 22 23  1  0
 23 24  1  0
 16  2  1  0
 24 19  1  0
 15  5  1  0
 13  8  1  0
M  END
>  <Compound_ID>  (208) 
CHEMBL4757289

>  <Molecule Name>  (208) 
nan

>  <Molecular Weight>  (208) 
342.83

>  <AlogP>  (208) 
3.66

>  <Smiles>  (208) 
Clc1cnc2[nH]c(-c3ccccc3)nc2c1OCC1CCNCC1

>  <Standard Type>  (208) 
IC50

>  <Standard Relation>  (208) 
'='

>  <Standard Units>  (208) 
nM

>  <Standard Value>  (208) 
30.0

>  <Assay ChEMBL ID>  (208) 
CHEMBL4669219

>  <Assay Description>  (208) 
Inhibition of SYK (unknown origin)

>  <BAO Format ID>  (208) 
BAO_0000357

>  <BAO Label>  (208) 
single protein format

>  <Assay Organism>  (208) 
Homo sapiens

>  <Target ChEMBL ID>  (208) 
CHEMBL2599

>  <Target Name>  (208) 
Tyrosine-protein kinase SYK

>  <Target Organism>  (208) 
Homo sapiens

>  <Target Type>  (208) 
SINGLE PROTEIN

>  <Document ChEMBL ID>  (208) 
CHEMBL4665716

>  <Source Description>  (208) 
Scientific Literature

>  <Document Journal>  (208) 
Bioorg Med Chem Lett

>  <Document Year>  (208) 
2020.0

>  <Active>  (208) 
1.0

>  <bits>  (208) 
<rdkit.DataStructs.cDataStructs.ExplicitBitVect object at 0x00000193F3407450>

>  <Group>  (208) 
G2

$$$$

     RDKit          2D

 43 47  0  0  0  0  0  0  0  0999 V2000
    3.0000    0.0000    0.0000 C   0  0  0  0  0  0  0  0  0  0  0  0
    1.5000    0.0000    0.0000 C   0  0  0  0  0  0  0  0  0  0  0  0
    0.7500   -1.2990    0.0000 C   0  0  0  0  0  0  0  0  0  0  0  0
   -0.7500   -1.2990    0.0000 C   0  0  0  0  0  0  0  0  0  0  0  0
   -1.5000   -2.5981    0.0000 N   0  0  0  0  0  0  0  0  0  0  0  0
   -3.0000   -2.5981    0.0000 C   0  0  0  0  0  0  0  0  0  0  0  0
   -3.7500   -1.2990    0.0000 C   0  0  0  0  0  0  0  0  0  0  0  0
   -5.2500   -1.2990    0.0000 C   0  0  0  0  0  0  0  0  0  0  0  0
   -6.0000    0.0000    0.0000 C   0  0  0  0  0  0  0  0  0  0  0  0
   -6.7500    1.2990    0.0000 F   0  0  0  0  0  0  0  0  0  0  0  0
   -4.7010    0.7500    0.0000 F   0  0  0  0  0  0  0  0  0  0  0  0
   -7.2990   -0.7500    0.0000 F   0  0  0  0  0  0  0  0  0  0  0  0
   -6.0000   -2.5981    0.0000 C   0  0  0  0  0  0  0  0  0  0  0  0
   -5.2500   -3.8971    0.0000 C   0  0  0  0  0  0  0  0  0  0  0  0
   -3.7500   -3.8971    0.0000 N   0  0  0  0  0  0  0  0  0  0  0  0
   -1.5000    0.0000    0.0000 N   0  0  0  0  0  0  0  0  0  0  0  0
   -0.7500    1.2990    0.0000 C   0  0  0  0  0  0  0  0  0  0  0  0
   -1.5000    2.5981    0.0000 C   0  0  0  0  0  0  0  0  0  0  0  0
   -0.7500    3.8971    0.0000 C   0  0  0  0  0  0  0  0  0  0  0  0
   -1.5000    5.1962    0.0000 C   0  0  0  0  0  0  0  0  0  0  0  0
   -3.0000    5.1962    0.0000 C   0  0  0  0  0  0  0  0  0  0  0  0
   -3.7500    6.4952    0.0000 N   0  0  0  0  0  0  0  0  0  0  0  0
   -3.0000    7.7942    0.0000 C   0  0  0  0  0  0  0  0  0  0  0  0
   -1.5000    7.7942    0.0000 C   0  0  0  0  0  0  0  0  0  0  0  0
   -0.7500    9.0933    0.0000 C   0  0  0  0  0  0  0  0  0  0  0  0
   -1.5000   10.3923    0.0000 N   0  0  0  0  0  0  0  0  0  0  0  0
   -0.7500   11.6913    0.0000 C   0  0  0  0  0  0  0  0  0  0  0  0
   -1.5000   12.9904    0.0000 O   0  0  0  0  0  0  0  0  0  0  0  0
    0.7500   11.6913    0.0000 C   0  0  0  0  0  0  0  0  0  0  0  0
    1.5000   10.3923    0.0000 C   0  0  0  0  0  0  0  0  0  0  0  0
    3.0000   10.3923    0.0000 C   0  0  0  0  0  0  0  0  0  0  0  0
    3.7500   11.6913    0.0000 C   0  0  0  0  0  0  0  0  0  0  0  0
    5.2500   11.6913    0.0000 C   0  0  0  0  0  0  0  0  0  0  0  0
    6.7500   11.6913    0.0000 F   0  0  0  0  0  0  0  0  0  0  0  0
    5.2500   10.1913    0.0000 F   0  0  0  0  0  0  0  0  0  0  0  0
    5.2500   13.1913    0.0000 F   0  0  0  0  0  0  0  0  0  0  0  0
    3.0000   12.9904    0.0000 C   0  0  0  0  0  0  0  0  0  0  0  0
    1.5000   12.9904    0.0000 C   0  0  0  0  0  0  0  0  0  0  0  0
   -3.0000   10.3923    0.0000 C   0  0  0  0  0  0  0  0  0  0  0  0
   -3.7500    9.0933    0.0000 C   0  0  0  0  0  0  0  0  0  0  0  0
   -3.7500    3.8971    0.0000 N   0  0  0  0  0  0  0  0  0  0  0  0
   -3.0000    2.5981    0.0000 C   0  0  0  0  0  0  0  0  0  0  0  0
    0.7500    1.2990    0.0000 C   0  0  0  0  0  0  0  0  0  0  0  0
  1  2  1  0
  2  3  2  0
  3  4  1  0
  4  5  1  0
  5  6  1  0
  6  7  2  0
  7  8  1  0
  8  9  1  0
  9 10  1  0
  9 11  1  0
  9 12  1  0
  8 13  2  0
 13 14  1  0
 14 15  2  0
  4 16  2  0
 16 17  1  0
 17 18  1  0
 18 19  2  0
 19 20  1  0
 20 21  2  0
 21 22  1  0
 22 23  1  0
 23 24  1  0
 24 25  1  0
 25 26  1  0
 26 27  1  0
 27 28  2  0
 27 29  1  0
 29 30  2  0
 30 31  1  0
 31 32  2  0
 32 33  1  0
 33 34  1  0
 33 35  1  0
 33 36  1  0
 32 37  1  0
 37 38  2  0
 26 39  1  0
 39 40  1  0
 21 41  1  0
 41 42  2  0
 17 43  2  0
 43  2  1  0
 15  6  1  0
 42 18  1  0
 40 23  1  0
 38 29  1  0
M  END
>  <Compound_ID>  (209) 
CHEMBL3911434

>  <Molecule Name>  (209) 
nan

>  <Molecular Weight>  (209) 
600.57

>  <AlogP>  (209) 
7.34

>  <Smiles>  (209) 
Cc1cc(Nc2cc(C(F)(F)F)ccn2)nc(-c2ccc(NC3CCN(C(=O)c4ccc(C(F)(F)F)cc4)CC3)nc2)c1

>  <Standard Type>  (209) 
IC50

>  <Standard Relation>  (209) 
'='

>  <Standard Units>  (209) 
nM

>  <Standard Value>  (209) 
56.0

>  <Assay ChEMBL ID>  (209) 
CHEMBL3887083

>  <Assay Description>  (209) 
Homogeneous Time-Resolved Fluorescence (HTRF) Assay: A recombinant GST-hSyk fusion protein was used to measure potency of compounds to inhibit human Syk activity. The recombinant human GST-Syk (Carna Biosciences #08-176) (5 pM final concentration) was incubated with various concentrations of the inhibitor diluted in DMSO (0.1% final concentration) for 10 minutes at room temperature in 15 mM Tris-HCl (pH 7.5), 0.01% tween 20, 2 mM DTT in 384 well plate format. To initiate the reaction the biotinylated substrate peptide (250 nM final concentration) that contains the phosphorylation site for Syk was added with magnesium (5 mM final concentration) and ATP (25 uM final concentration). Final volume of the reaction was 10 uL. Phosphorylation of the peptide was allowed to proceed for 45x at room temperature. To quench the reaction and detect the phosphorylated product, 2 nM of a Europium-anti-phosphotyrosine antibody (Perkin Elmer #AD0161) and 70 nM SA-APC (Perkin-Elmer #CR130-100) were added together in 15 mM Tris pH 7.5.

>  <BAO Format ID>  (209) 
BAO_0000357

>  <BAO Label>  (209) 
single protein format

>  <Assay Organism>  (209) 
Homo sapiens

>  <Target ChEMBL ID>  (209) 
CHEMBL2599

>  <Target Name>  (209) 
Tyrosine-protein kinase SYK

>  <Target Organism>  (209) 
Homo sapiens

>  <Target Type>  (209) 
SINGLE PROTEIN

>  <Document ChEMBL ID>  (209) 
CHEMBL3886158

>  <Source Description>  (209) 
BindingDB Database

>  <Document Journal>  (209) 
nan

>  <Document Year>  (209) 
2015.0

>  <Active>  (209) 
1.0

>  <bits>  (209) 
<rdkit.DataStructs.cDataStructs.ExplicitBitVect object at 0x00000193F3407140>

>  <Group>  (209) 
G2

$$$$

     RDKit          2D

 35 40  0  0  0  0  0  0  0  0999 V2000
   -6.5218   -6.8278    0.0000 C   0  0  0  0  0  0  0  0  0  0  0  0
   -5.3083   -5.9462    0.0000 C   0  0  0  0  0  0  0  0  0  0  0  0
   -3.8817   -6.4097    0.0000 N   0  0  0  0  0  0  0  0  0  0  0  0
   -3.0000   -5.1962    0.0000 N   0  0  0  0  0  0  0  0  0  0  0  0
   -1.5000   -5.1962    0.0000 C   0  0  0  0  0  0  0  0  0  0  0  0
   -0.7500   -6.4952    0.0000 C   0  0  0  0  0  0  0  0  0  0  0  0
    0.7500   -6.4952    0.0000 C   0  0  0  0  0  0  0  0  0  0  0  0
    1.5000   -5.1962    0.0000 N   0  0  0  0  0  0  0  0  0  0  0  0
    0.7500   -3.8971    0.0000 C   0  0  0  0  0  0  0  0  0  0  0  0
    1.5000   -2.5981    0.0000 N   0  0  0  0  0  0  0  0  0  0  0  0
    0.7500   -1.2990    0.0000 C   0  0  0  0  0  0  0  0  0  0  0  0
    1.5000    0.0000    0.0000 C   0  0  0  0  0  0  0  0  0  0  0  0
    0.7500    1.2990    0.0000 C   0  0  0  0  0  0  0  0  0  0  0  0
   -0.7500    1.2990    0.0000 C   0  0  0  0  0  0  0  0  0  0  0  0
   -1.5000    0.0000    0.0000 C   0  0  0  0  0  0  0  0  0  0  0  0
   -0.7500   -1.2990    0.0000 C   0  0  0  0  0  0  0  0  0  0  0  0
   -2.9672    0.3119    0.0000 C   0  0  0  0  0  0  0  0  0  0  0  0
   -4.0819   -0.6918    0.0000 C   0  0  0  0  0  0  0  0  0  0  0  0
   -3.7701   -2.1590    0.0000 O   0  0  0  0  0  0  0  0  0  0  0  0
   -5.5085   -0.2283    0.0000 C   0  0  0  0  0  0  0  0  0  0  0  0
   -6.9757   -0.5402    0.0000 C   0  0  0  0  0  0  0  0  0  0  0  0
   -6.5122    0.8864    0.0000 C   0  0  0  0  0  0  0  0  0  0  0  0
   -3.1240    1.8037    0.0000 C   0  0  0  0  0  0  0  0  0  0  0  0
   -1.7537    2.4138    0.0000 N   0  0  0  0  0  0  0  0  0  0  0  0
   -1.4418    3.8810    0.0000 C   0  0  0  0  0  0  0  0  0  0  0  0
   -0.7500   -3.8971    0.0000 N   0  0  0  0  0  0  0  0  0  0  0  0
   -3.8817   -3.9826    0.0000 C   0  0  0  0  0  0  0  0  0  0  0  0
   -5.3083   -4.4462    0.0000 C   0  0  0  0  0  0  0  0  0  0  0  0
   -6.5218   -3.5645    0.0000 C   0  0  0  0  0  0  0  0  0  0  0  0
   -7.8921   -4.1746    0.0000 N   0  0  0  0  0  0  0  0  0  0  0  0
   -8.2040   -5.6418    0.0000 C   0  0  0  0  0  0  0  0  0  0  0  0
   -9.6958   -5.7986    0.0000 C   0  0  0  0  0  0  0  0  0  0  0  0
  -10.4458   -7.0976    0.0000 O   0  0  0  0  0  0  0  0  0  0  0  0
  -10.3059   -4.4283    0.0000 C   0  0  0  0  0  0  0  0  0  0  0  0
   -9.1911   -3.4246    0.0000 O   0  0  0  0  0  0  0  0  0  0  0  0
  1  2  1  0
  2  3  2  0
  3  4  1  0
  4  5  1  0
  5  6  2  0
  6  7  1  0
  7  8  2  0
  8  9  1  0
  9 10  1  0
 10 11  1  0
 11 12  2  0
 12 13  1  0
 13 14  2  0
 14 15  1  0
 15 16  2  0
 15 17  1  0
 17 18  1  0
 18 19  2  0
 18 20  1  0
 20 21  1  0
 21 22  1  0
 17 23  2  0
 23 24  1  0
 24 25  1  0
  9 26  2  0
  4 27  1  0
 27 28  2  0
 28 29  1  0
 29 30  1  0
 30 31  1  0
 31 32  1  0
 32 33  1  6
 32 34  1  0
 34 35  1  0
 28  2  1  0
 35 30  1  0
 26  5  1  0
 16 11  1  0
 22 20  1  0
 24 14  1  0
M  END
>  <Compound_ID>  (210) 
CHEMBL3921923

>  <Molecule Name>  (210) 
nan

>  <Molecular Weight>  (210) 
473.54

>  <AlogP>  (210) 
2.91

>  <Smiles>  (210) 
Cc1nn(-c2ccnc(Nc3ccc4c(c3)c(C(=O)C3CC3)cn4C)n2)cc1CN1C[C@H](O)CO1

>  <Standard Type>  (210) 
IC50

>  <Standard Relation>  (210) 
'='

>  <Standard Units>  (210) 
nM

>  <Standard Value>  (210) 
6.15

>  <Assay ChEMBL ID>  (210) 
CHEMBL3887719

>  <Assay Description>  (210) 
Inhibition Assay: Compounds of the invention were initially diluted to 10 mM in 100% DMSO (CALBIOCHEM) for storage and made into kinase buffer solution to create a compound concentration ranging from 1 uM and 10 uM. Serial dilutions of compounds of the invention were dispensed into a 96-well plate (GREINER BIOSCIENCES) at 6 uL each. Purified full-length human SYK (CARNA BIOSCIENCES) were diluted in kinase buffer and added to the compound solutions and pre-incubated for 30 minutes at room temperature. Next, ATP (TEKNOVA) of Km (15 uM) and substrate solution (suggested manufacture substrates of PerkinElmer, Ulight-TK peptide for SYK) was added (12 uL each) to the wells containing the compound solution and enzyme. The reaction mixture was incubated for 1 hour. Following the incubation, the stop solution made with EDTA, water, and Lance detection buffer (PERKINELMER) was added (12 uL each) to stop phosphorylation. Following the addition of the stop solution and 5 minutes of shaking.

>  <BAO Format ID>  (210) 
BAO_0000357

>  <BAO Label>  (210) 
single protein format

>  <Assay Organism>  (210) 
Homo sapiens

>  <Target ChEMBL ID>  (210) 
CHEMBL2599

>  <Target Name>  (210) 
Tyrosine-protein kinase SYK

>  <Target Organism>  (210) 
Homo sapiens

>  <Target Type>  (210) 
SINGLE PROTEIN

>  <Document ChEMBL ID>  (210) 
CHEMBL3886420

>  <Source Description>  (210) 
BindingDB Database

>  <Document Journal>  (210) 
nan

>  <Document Year>  (210) 
2015.0

>  <Active>  (210) 
1.0

>  <bits>  (210) 
<rdkit.DataStructs.cDataStructs.ExplicitBitVect object at 0x00000193F34066C0>

>  <Group>  (210) 
G2

$$$$

     RDKit          2D

 24 26  0  0  0  0  0  0  0  0999 V2000
    3.0000    0.0000    0.0000 C   0  0  0  0  0  0  0  0  0  0  0  0
    1.5000    0.0000    0.0000 C   0  0  0  0  0  0  0  0  0  0  0  0
    0.7500   -1.2990    0.0000 C   0  0  0  0  0  0  0  0  0  0  0  0
   -0.7500   -1.2990    0.0000 C   0  0  0  0  0  0  0  0  0  0  0  0
   -1.5000   -2.5981    0.0000 C   0  0  0  0  0  0  0  0  0  0  0  0
   -1.5000    0.0000    0.0000 N   0  0  0  0  0  0  0  0  0  0  0  0
   -0.7500    1.2990    0.0000 C   0  0  0  0  0  0  0  0  0  0  0  0
   -1.5000    2.5981    0.0000 N   0  0  0  0  0  0  0  0  0  0  0  0
   -0.7500    3.8971    0.0000 C   0  0  0  0  0  0  0  0  0  0  0  0
    0.7500    3.8971    0.0000 C   0  0  0  0  0  0  0  0  0  0  0  0
    1.5000    5.1962    0.0000 C   0  0  0  0  0  0  0  0  0  0  0  0
    3.0000    5.1962    0.0000 N   0  0  0  0  0  0  0  0  0  0  0  0
    3.7500    3.8971    0.0000 C   0  0  0  0  0  0  0  0  0  0  0  0
    5.2500    3.8971    0.0000 C   0  0  0  0  0  0  0  0  0  0  0  0
    5.5105    2.4199    0.0000 N   0  0  0  0  0  0  0  0  0  0  0  0
    6.6595    4.4101    0.0000 C   0  0  0  0  0  0  0  0  0  0  0  0
    5.5105    5.3743    0.0000 C   0  0  0  0  0  0  0  0  0  0  0  0
    0.7500    6.4952    0.0000 C   0  0  0  0  0  0  0  0  0  0  0  0
   -0.7500    6.4952    0.0000 N   0  0  0  0  0  0  0  0  0  0  0  0
   -1.5000    5.1962    0.0000 C   0  0  0  0  0  0  0  0  0  0  0  0
   -3.0000    5.1962    0.0000 C   0  0  0  0  0  0  0  0  0  0  0  0
   -3.7500    6.4952    0.0000 N   0  0  0  0  0  0  0  0  0  0  0  0
   -3.7500    3.8971    0.0000 O   0  0  0  0  0  0  0  0  0  0  0  0
    0.7500    1.2990    0.0000 C   0  0  0  0  0  0  0  0  0  0  0  0
  1  2  1  0
  2  3  2  0
  3  4  1  0
  4  5  1  0
  4  6  2  0
  6  7  1  0
  7  8  1  0
  8  9  1  0
  9 10  2  0
 10 11  1  0
 11 12  1  0
 12 13  1  0
 13 14  1  0
 14 15  1  0
 14 16  1  0
 16 17  1  0
 11 18  2  0
 18 19  1  0
 19 20  2  0
 20 21  1  0
 21 22  1  0
 21 23  2  0
  7 24  2  0
 24  2  1  0
 20  9  1  0
 17 14  1  0
M  END
>  <Compound_ID>  (211) 
CHEMBL3415587

>  <Molecule Name>  (211) 
nan

>  <Molecular Weight>  (211) 
326.4

>  <AlogP>  (211) 
1.84

>  <Smiles>  (211) 
Cc1cc(C)nc(Nc2cc(NCC3(N)CC3)cnc2C(N)=O)c1

>  <Standard Type>  (211) 
IC50

>  <Standard Relation>  (211) 
'='

>  <Standard Units>  (211) 
nM

>  <Standard Value>  (211) 
0.5

>  <Assay ChEMBL ID>  (211) 
CHEMBL3420413

>  <Assay Description>  (211) 
Inhibition of full-length GST-tagged human Syk preincubated for 10 mins followed by peptide substrate/ATP addition measured after 45 mins by TR-FRET assay

>  <BAO Format ID>  (211) 
BAO_0000357

>  <BAO Label>  (211) 
single protein format

>  <Assay Organism>  (211) 
Homo sapiens

>  <Target ChEMBL ID>  (211) 
CHEMBL2599

>  <Target Name>  (211) 
Tyrosine-protein kinase SYK

>  <Target Organism>  (211) 
Homo sapiens

>  <Target Type>  (211) 
SINGLE PROTEIN

>  <Document ChEMBL ID>  (211) 
CHEMBL3414497

>  <Source Description>  (211) 
Scientific Literature

>  <Document Journal>  (211) 
J Med Chem

>  <Document Year>  (211) 
2015.0

>  <Active>  (211) 
1.0

>  <bits>  (211) 
<rdkit.DataStructs.cDataStructs.ExplicitBitVect object at 0x00000193F3407530>

>  <Group>  (211) 
G2

$$$$

     RDKit          2D

 29 32  0  0  0  0  0  0  0  0999 V2000
    5.2500   -1.2990    0.0000 C   0  0  0  0  0  0  0  0  0  0  0  0
    3.7500   -1.2990    0.0000 C   0  0  0  0  0  0  0  0  0  0  0  0
    3.0000    0.0000    0.0000 N   0  0  0  0  0  0  0  0  0  0  0  0
    1.5000    0.0000    0.0000 C   0  0  0  0  0  0  0  0  0  0  0  0
    0.7500   -1.2990    0.0000 N   0  0  0  0  0  0  0  0  0  0  0  0
   -0.7500   -1.2990    0.0000 C   0  0  0  0  0  0  0  0  0  0  0  0
   -1.5000   -2.5981    0.0000 C   0  0  0  0  0  0  0  0  0  0  0  0
   -3.0000   -2.5981    0.0000 C   0  0  0  0  0  0  0  0  0  0  0  0
   -3.7500   -3.8971    0.0000 C   0  0  0  0  0  0  0  0  0  0  0  0
   -3.0000   -5.1962    0.0000 C   0  0  0  0  0  0  0  0  0  0  0  0
   -3.7500   -6.4952    0.0000 C   0  0  0  0  0  0  0  0  0  0  0  0
   -5.2500   -6.4952    0.0000 C   0  0  0  0  0  0  0  0  0  0  0  0
   -6.0000   -7.7942    0.0000 C   0  0  0  0  0  0  0  0  0  0  0  0
   -5.2500   -9.0933    0.0000 N   0  0  0  0  0  0  0  0  0  0  0  0
   -6.0000  -10.3923    0.0000 C   0  0  0  0  0  0  0  0  0  0  0  0
   -3.7500   -9.0933    0.0000 C   0  0  0  0  0  0  0  0  0  0  0  0
   -3.0000   -7.7942    0.0000 C   0  0  0  0  0  0  0  0  0  0  0  0
   -1.5000   -5.1962    0.0000 C   0  0  0  0  0  0  0  0  0  0  0  0
   -0.7500   -6.4952    0.0000 F   0  0  0  0  0  0  0  0  0  0  0  0
   -0.7500   -3.8971    0.0000 C   0  0  0  0  0  0  0  0  0  0  0  0
   -1.5000    0.0000    0.0000 C   0  0  0  0  0  0  0  0  0  0  0  0
   -0.7500    1.2990    0.0000 C   0  0  0  0  0  0  0  0  0  0  0  0
   -1.5000    2.5981    0.0000 N   0  0  0  0  0  0  0  0  0  0  0  0
   -0.7500    3.8971    0.0000 C   0  0  0  0  0  0  0  0  0  0  0  0
    0.7500    3.8971    0.0000 N   0  0  0  0  0  0  0  0  0  0  0  0
    1.5000    5.1962    0.0000 C   0  0  0  0  0  0  0  0  0  0  0  0
    1.5000    2.5981    0.0000 C   0  0  0  0  0  0  0  0  0  0  0  0
    3.0000    2.5981    0.0000 O   0  0  0  0  0  0  0  0  0  0  0  0
    0.7500    1.2990    0.0000 C   0  0  0  0  0  0  0  0  0  0  0  0
  1  2  1  0
  2  3  1  0
  3  4  1  0
  4  5  2  0
  5  6  1  0
  6  7  1  0
  7  8  2  0
  8  9  1  0
  9 10  2  0
 10 11  1  0
 11 12  1  0
 12 13  1  0
 13 14  1  0
 14 15  1  0
 14 16  1  0
 16 17  1  0
 10 18  1  0
 18 19  1  0
 18 20  2  0
  6 21  2  0
 21 22  1  0
 22 23  1  0
 23 24  2  0
 24 25  1  0
 25 26  1  0
 25 27  1  0
 27 28  2  0
 27 29  1  0
 29  4  1  0
 20  7  1  0
 29 22  2  0
 17 11  1  0
M  END
>  <Compound_ID>  (212) 
CHEMBL3698157

>  <Molecule Name>  (212) 
nan

>  <Molecular Weight>  (212) 
395.48

>  <AlogP>  (212) 
3.38

>  <Smiles>  (212) 
CCNc1nc(-c2ccc(C3CCN(C)CC3)c(F)c2)cc2ncn(C)c(=O)c12

>  <Standard Type>  (212) 
IC50

>  <Standard Relation>  (212) 
'='

>  <Standard Units>  (212) 
nM

>  <Standard Value>  (212) 
84.0

>  <Assay ChEMBL ID>  (212) 
CHEMBL3705362

>  <Assay Description>  (212) 
Mobility-Shift kinase assay: Compounds of the examples provided herein were assessed for their ability to inhibit Syk kinase by utilizing Caliper Life Sciences' proprietary LabChip technology. The off-chip incubation mobility-shift kinase assay uses a microfluidic chip to measure the conversion of a fluorescent peptide substrate to a phosphorylated product. The reaction mixture, from a microtiter plate well, is introduced through a capillary sipper onto the chip, where the nonphosphorylated substrate and phosphorylated product are separated by electrophoresis and detected via laser induced fluorescence. The signature of the fluorescence signal over time reveals the extent of the reaction. The phosphorylated product migrates through the chip faster than the non-phosphorylated substrate, and signals from the two forms of the peptide appear as distinct peaks.

>  <BAO Format ID>  (212) 
BAO_0000357

>  <BAO Label>  (212) 
single protein format

>  <Assay Organism>  (212) 
Homo sapiens

>  <Target ChEMBL ID>  (212) 
CHEMBL2599

>  <Target Name>  (212) 
Tyrosine-protein kinase SYK

>  <Target Organism>  (212) 
Homo sapiens

>  <Target Type>  (212) 
SINGLE PROTEIN

>  <Document ChEMBL ID>  (212) 
CHEMBL3639055

>  <Source Description>  (212) 
BindingDB Database

>  <Document Journal>  (212) 
nan

>  <Document Year>  (212) 
2014.0

>  <Active>  (212) 
1.0

>  <bits>  (212) 
<rdkit.DataStructs.cDataStructs.ExplicitBitVect object at 0x00000193F34061F0>

>  <Group>  (212) 
G2

$$$$

     RDKit          2D

 40 45  0  0  0  0  0  0  0  0999 V2000
    4.3158   13.4148    0.0000 C   0  0  0  0  0  0  0  0  0  0  0  0
    4.0040   11.9476    0.0000 O   0  0  0  0  0  0  0  0  0  0  0  0
    2.5774   11.4841    0.0000 C   0  0  0  0  0  0  0  0  0  0  0  0
    2.2655   10.0169    0.0000 C   0  0  0  0  0  0  0  0  0  0  0  0
    3.3802    9.0132    0.0000 C   0  0  0  0  0  0  0  0  0  0  0  0
    3.0684    7.5459    0.0000 C   0  0  0  0  0  0  0  0  0  0  0  0
    1.6418    7.0824    0.0000 N   0  0  0  0  0  0  0  0  0  0  0  0
    0.5271    8.0861    0.0000 C   0  0  0  0  0  0  0  0  0  0  0  0
   -0.8995    7.6226    0.0000 C   0  0  0  0  0  0  0  0  0  0  0  0
   -2.0143    8.6263    0.0000 C   0  0  0  0  0  0  0  0  0  0  0  0
   -3.4408    8.1628    0.0000 C   0  0  0  0  0  0  0  0  0  0  0  0
   -3.7527    6.6955    0.0000 N   0  0  0  0  0  0  0  0  0  0  0  0
   -2.6380    5.6918    0.0000 C   0  0  0  0  0  0  0  0  0  0  0  0
   -2.9499    4.2246    0.0000 N   0  0  0  0  0  0  0  0  0  0  0  0
   -1.8351    3.2209    0.0000 C   0  0  0  0  0  0  0  0  0  0  0  0
   -0.4086    3.6844    0.0000 C   0  0  0  0  0  0  0  0  0  0  0  0
    0.7062    2.6807    0.0000 C   0  0  0  0  0  0  0  0  0  0  0  0
    2.1328    3.1443    0.0000 Cl  0  0  0  0  0  0  0  0  0  0  0  0
    0.3943    1.2135    0.0000 C   0  0  0  0  0  0  0  0  0  0  0  0
    1.2760    0.0000    0.0000 N   0  0  0  0  0  0  0  0  0  0  0  0
    0.3943   -1.2135    0.0000 C   0  0  0  0  0  0  0  0  0  0  0  0
    0.8578   -2.6401    0.0000 C   0  0  0  0  0  0  0  0  0  0  0  0
    2.3250   -2.9520    0.0000 O   0  0  0  0  0  0  0  0  0  0  0  0
   -0.1459   -3.7548    0.0000 N   0  0  0  0  0  0  0  0  0  0  0  0
   -1.6131   -3.4430    0.0000 C   0  0  0  0  0  0  0  0  0  0  0  0
   -2.6168   -4.5577    0.0000 C   0  0  0  0  0  0  0  0  0  0  0  0
   -2.1533   -5.9843    0.0000 C   0  0  0  0  0  0  0  0  0  0  0  0
   -3.1570   -7.0990    0.0000 N   0  0  0  0  0  0  0  0  0  0  0  0
   -2.8451   -8.5662    0.0000 C   0  0  0  0  0  0  0  0  0  0  0  0
   -4.1441   -9.3162    0.0000 C   0  0  0  0  0  0  0  0  0  0  0  0
   -5.2588   -8.3125    0.0000 C   0  0  0  0  0  0  0  0  0  0  0  0
   -4.6487   -6.9422    0.0000 C   0  0  0  0  0  0  0  0  0  0  0  0
   -5.3987   -5.6431    0.0000 O   0  0  0  0  0  0  0  0  0  0  0  0
   -0.6860   -6.2961    0.0000 C   0  0  0  0  0  0  0  0  0  0  0  0
    0.3177   -5.1814    0.0000 C   0  0  0  0  0  0  0  0  0  0  0  0
   -1.0323   -0.7500    0.0000 C   0  0  0  0  0  0  0  0  0  0  0  0
   -1.0323    0.7500    0.0000 C   0  0  0  0  0  0  0  0  0  0  0  0
   -2.1470    1.7537    0.0000 C   0  0  0  0  0  0  0  0  0  0  0  0
   -1.2114    6.1554    0.0000 N   0  0  0  0  0  0  0  0  0  0  0  0
    0.8389    9.5533    0.0000 C   0  0  0  0  0  0  0  0  0  0  0  0
  1  2  1  0
  2  3  1  0
  3  4  1  0
  4  5  2  0
  5  6  1  0
  6  7  2  0
  7  8  1  0
  8  9  1  0
  9 10  2  0
 10 11  1  0
 11 12  2  0
 12 13  1  0
 13 14  1  0
 14 15  1  0
 15 16  2  0
 16 17  1  0
 17 18  1  0
 17 19  2  0
 19 20  1  0
 20 21  1  0
 21 22  1  0
 22 23  2  0
 22 24  1  0
 24 25  1  0
 25 26  1  0
 26 27  1  0
 27 28  1  0
 28 29  1  0
 29 30  1  0
 30 31  1  0
 31 32  1  0
 32 33  2  0
 27 34  1  0
 34 35  1  0
 21 36  2  0
 36 37  1  0
 37 38  2  0
 13 39  2  0
  8 40  2  0
 40  4  1  0
 39  9  1  0
 38 15  1  0
 37 19  1  0
 35 24  1  0
 32 28  1  0
M  END
>  <Compound_ID>  (213) 
CHEMBL3643821

>  <Molecule Name>  (213) 
nan

>  <Molecular Weight>  (213) 
560.06

>  <AlogP>  (213) 
4.79

>  <Smiles>  (213) 
COCc1ccnc(-c2ccnc(Nc3cc(Cl)c4[nH]c(C(=O)N5CCC(N6CCCC6=O)CC5)cc4c3)n2)c1

>  <Standard Type>  (213) 
IC50

>  <Standard Relation>  (213) 
'='

>  <Standard Units>  (213) 
nM

>  <Standard Value>  (213) 
4.5

>  <Assay ChEMBL ID>  (213) 
CHEMBL3705803

>  <Assay Description>  (213) 
Kinase Glo Luminescence Kinase Assay: Recombinant human Syk (amino acids 342-635) was expressed as a fusion protein with an N-terminal GST tag, affinity-purified and deep-frozen at a concentration of approx. 50-100 uM in test buffer (25 mM HEPES pH7.5; 25 mM MgCl2; 5 mM MnCl2; 50 mM KCl; 0.2% BSA; 0.01% CHAPS; 100 uM Na3VO4; 0.5 mM DTT) and 10% glycerol at -80 C until use. The catalytic activity of the GST-Syk kinase fusion protein was determined using the Kinase Glo Luminescence Kinase test (Promega; V6712). In this homogeneous test the amount of ATP remaining after the kinase reaction is quantified by a luciferin-luciferase reaction using luminescence. The luminescence signal obtained correlates with the amount of ATP still present and thus correlates inversely with the activity of the protein kinase. The test compounds were dissolved in 100% DMSO at a concentration of 10 mM and diluted in DMSO to a concentration of 1 mM.

>  <BAO Format ID>  (213) 
BAO_0000357

>  <BAO Label>  (213) 
single protein format

>  <Assay Organism>  (213) 
Homo sapiens

>  <Target ChEMBL ID>  (213) 
CHEMBL2599

>  <Target Name>  (213) 
Tyrosine-protein kinase SYK

>  <Target Organism>  (213) 
Homo sapiens

>  <Target Type>  (213) 
SINGLE PROTEIN

>  <Document ChEMBL ID>  (213) 
CHEMBL3638486

>  <Source Description>  (213) 
BindingDB Database

>  <Document Journal>  (213) 
nan

>  <Document Year>  (213) 
2014.0

>  <Active>  (213) 
1.0

>  <bits>  (213) 
<rdkit.DataStructs.cDataStructs.ExplicitBitVect object at 0x00000193F3406340>

>  <Group>  (213) 
G2

$$$$

     RDKit          2D

 29 33  0  0  0  0  0  0  0  0999 V2000
   -2.5099    6.0921    0.0000 C   0  0  0  0  0  0  0  0  0  0  0  0
   -3.8090    6.8421    0.0000 C   0  0  0  0  0  0  0  0  0  0  0  0
   -3.9658    8.3339    0.0000 C   0  0  0  0  0  0  0  0  0  0  0  0
   -5.4330    8.6458    0.0000 C   0  0  0  0  0  0  0  0  0  0  0  0
   -6.1830    7.3467    0.0000 C   0  0  0  0  0  0  0  0  0  0  0  0
   -5.1793    6.2320    0.0000 N   0  0  0  0  0  0  0  0  0  0  0  0
   -5.4912    4.7648    0.0000 C   0  0  0  0  0  0  0  0  0  0  0  0
   -6.9177    4.3013    0.0000 C   0  0  0  0  0  0  0  0  0  0  0  0
   -7.2296    2.8340    0.0000 C   0  0  0  0  0  0  0  0  0  0  0  0
   -6.1149    1.8303    0.0000 C   0  0  0  0  0  0  0  0  0  0  0  0
   -4.6883    2.2939    0.0000 C   0  0  0  0  0  0  0  0  0  0  0  0
   -3.5736    1.2902    0.0000 N   0  0  0  0  0  0  0  0  0  0  0  0
   -2.1470    1.7537    0.0000 C   0  0  0  0  0  0  0  0  0  0  0  0
   -1.8351    3.2209    0.0000 C   0  0  0  0  0  0  0  0  0  0  0  0
   -0.4086    3.6844    0.0000 C   0  0  0  0  0  0  0  0  0  0  0  0
   -0.0967    5.1517    0.0000 C   0  0  0  0  0  0  0  0  0  0  0  0
    1.3299    5.6152    0.0000 C   0  0  0  0  0  0  0  0  0  0  0  0
    1.6418    7.0824    0.0000 C   0  0  0  0  0  0  0  0  0  0  0  0
    0.5271    8.0861    0.0000 C   0  0  0  0  0  0  0  0  0  0  0  0
    0.8389    9.5533    0.0000 O   0  0  0  0  0  0  0  0  0  0  0  0
   -0.8995    7.6226    0.0000 C   0  0  0  0  0  0  0  0  0  0  0  0
   -1.2114    6.1554    0.0000 C   0  0  0  0  0  0  0  0  0  0  0  0
    0.7062    2.6807    0.0000 N   0  0  0  0  0  0  0  0  0  0  0  0
    0.3943    1.2135    0.0000 N   0  0  0  0  0  0  0  0  0  0  0  0
    1.2760    0.0000    0.0000 C   0  0  0  0  0  0  0  0  0  0  0  0
    0.3943   -1.2135    0.0000 C   0  0  0  0  0  0  0  0  0  0  0  0
   -1.0323   -0.7500    0.0000 N   0  0  0  0  0  0  0  0  0  0  0  0
   -1.0323    0.7500    0.0000 C   0  0  0  0  0  0  0  0  0  0  0  0
   -4.3764    3.7611    0.0000 N   0  0  0  0  0  0  0  0  0  0  0  0
  1  2  1  0
  2  3  1  0
  3  4  1  0
  4  5  1  0
  5  6  1  0
  6  7  1  0
  7  8  2  0
  8  9  1  0
  9 10  2  0
 10 11  1  0
 11 12  1  0
 12 13  1  0
 13 14  2  0
 14 15  1  0
 15 16  1  0
 16 17  2  0
 17 18  1  0
 18 19  2  0
 19 20  1  0
 19 21  1  0
 21 22  2  0
 15 23  2  0
 23 24  1  0
 24 25  1  0
 25 26  2  0
 26 27  1  0
 27 28  2  0
 11 29  2  0
  6  2  1  0
 29  7  1  0
 28 13  1  0
 22 16  1  0
 28 24  1  0
M  END
>  <Compound_ID>  (214) 
CHEMBL3931568

>  <Molecule Name>  (214) 
nan

>  <Molecular Weight>  (214) 
386.46

>  <AlogP>  (214) 
4.23

>  <Smiles>  (214) 
CC1CCCN1c1cccc(Nc2cc(-c3ccc(O)cc3)nn3ccnc23)n1

>  <Standard Type>  (214) 
IC50

>  <Standard Relation>  (214) 
'='

>  <Standard Units>  (214) 
nM

>  <Standard Value>  (214) 
63.9

>  <Assay ChEMBL ID>  (214) 
CHEMBL3887423

>  <Assay Description>  (214) 
Inhibition Assay: Assay plates: 96-well MultiScreen 0.65 um filter plates (Millipore Cat. No.: MADVNOB10)Streptavidin coated beads: Streptavidin Sepharose, suspension 5.0 mL, in 50 mM EDTA/PBS diluted (1:100), (Amersham, Cat. No.: 17-5113-01)Compounds: 10 mM in 100% dimethylsulfoxide (DMSO), final conc.: compound 0.003-100 uM in 10% DMSOEnzyme: SYK RPA purified, truncated construct of Spleen Tyrosine Kinase aa 360-635, stock solution 1 mg/mL, MW: 31.2 KDa, final conc.:0.0005 uM. Peptide 1: biotinylated peptide is derived from a naturally occurring phosphor-acceptor consensus sequence (Biotin-EPEGDYEEVLE), special order from QCB, stock solution 20 mM, final conc.: 5.0 uM.ATP: Adenosine-5'-triphosphate 20 mM, (ROCHE Cat. No.: 93202720), final concentration: 20 uM Buffer: HEPES: 2-Hydroxyethyl piperazine-2-ethanesulfonic acid (Sigma, Cat. No.: H-3375)final concentration: 50 mM HEPES pH7.5BSA: Bovine Serum Albumin Fraction V, fatty acid free (Roche Diagnostics GmbH, Cat. No. 9100221).

>  <BAO Format ID>  (214) 
BAO_0000357

>  <BAO Label>  (214) 
single protein format

>  <Assay Organism>  (214) 
None

>  <Target ChEMBL ID>  (214) 
CHEMBL2599

>  <Target Name>  (214) 
Tyrosine-protein kinase SYK

>  <Target Organism>  (214) 
Homo sapiens

>  <Target Type>  (214) 
SINGLE PROTEIN

>  <Document ChEMBL ID>  (214) 
CHEMBL3886315

>  <Source Description>  (214) 
BindingDB Database

>  <Document Journal>  (214) 
nan

>  <Document Year>  (214) 
2015.0

>  <Active>  (214) 
1.0

>  <bits>  (214) 
<rdkit.DataStructs.cDataStructs.ExplicitBitVect object at 0x00000193F34047B0>

>  <Group>  (214) 
G2

$$$$

     RDKit          2D

 28 30  0  0  0  0  0  0  0  0999 V2000
    3.0000    0.0000    0.0000 C   0  0  0  0  0  0  0  0  0  0  0  0
    1.5000    0.0000    0.0000 C   0  0  0  0  0  0  0  0  0  0  0  0
    0.7500   -1.2990    0.0000 C   0  0  0  0  0  0  0  0  0  0  0  0
   -0.7500   -1.2990    0.0000 C   0  0  0  0  0  0  0  0  0  0  0  0
   -1.5000   -2.5981    0.0000 N   0  0  0  0  0  0  0  0  0  0  0  0
   -3.0000   -2.5981    0.0000 C   0  0  0  0  0  0  0  0  0  0  0  0
   -3.7500   -1.2990    0.0000 N   0  0  0  0  0  0  0  0  0  0  0  0
   -5.2500   -1.2990    0.0000 C   0  0  0  0  0  0  0  0  0  0  0  0
   -6.0000   -2.5981    0.0000 C   0  0  0  0  0  0  0  0  0  0  0  0
   -5.2500   -3.8971    0.0000 C   0  0  0  0  0  0  0  0  0  0  0  0
   -6.0000   -5.1962    0.0000 C   0  0  0  0  0  0  0  0  0  0  0  0
   -6.7500   -6.4952    0.0000 F   0  0  0  0  0  0  0  0  0  0  0  0
   -7.2990   -4.4462    0.0000 F   0  0  0  0  0  0  0  0  0  0  0  0
   -4.7010   -5.9462    0.0000 F   0  0  0  0  0  0  0  0  0  0  0  0
   -3.7500   -3.8971    0.0000 N   0  0  0  0  0  0  0  0  0  0  0  0
   -1.5000    0.0000    0.0000 C   0  0  0  0  0  0  0  0  0  0  0  0
   -0.7500    1.2990    0.0000 C   0  0  0  0  0  0  0  0  0  0  0  0
   -1.5000    2.5981    0.0000 C   0  0  0  0  0  0  0  0  0  0  0  0
   -0.7500    3.8971    0.0000 C   0  0  0  0  0  0  0  0  0  0  0  0
   -1.5000    5.1962    0.0000 C   0  0  0  0  0  0  0  0  0  0  0  0
   -3.0000    5.1962    0.0000 C   0  0  0  0  0  0  0  0  0  0  0  0
   -3.7500    3.8971    0.0000 C   0  0  0  0  0  0  0  0  0  0  0  0
   -5.2500    3.8971    0.0000 S   0  0  0  0  0  0  0  0  0  0  0  0
   -5.2500    5.3971    0.0000 O   0  0  0  0  0  0  0  0  0  0  0  0
   -5.2500    2.3971    0.0000 O   0  0  0  0  0  0  0  0  0  0  0  0
   -6.7500    3.8971    0.0000 O   0  0  0  0  0  0  0  0  0  0  0  0
   -3.0000    2.5981    0.0000 C   0  0  0  0  0  0  0  0  0  0  0  0
    0.7500    1.2990    0.0000 C   0  0  0  0  0  0  0  0  0  0  0  0
  1  2  1  0
  2  3  2  0
  3  4  1  0
  4  5  1  0
  5  6  1  0
  6  7  2  0
  7  8  1  0
  8  9  2  0
  9 10  1  0
 10 11  1  0
 11 12  1  0
 11 13  1  0
 11 14  1  0
 10 15  2  0
  4 16  2  0
 16 17  1  0
 17 18  1  0
 18 19  2  0
 19 20  1  0
 20 21  2  0
 21 22  1  0
 22 23  1  0
 23 24  2  0
 23 25  2  0
 23 26  1  0
 22 27  2  0
 17 28  2  0
 28  2  1  0
 15  6  1  0
 27 18  1  0
M  END
>  <Compound_ID>  (215) 
CHEMBL3924134

>  <Molecule Name>  (215) 
nan

>  <Molecular Weight>  (215) 
409.39

>  <AlogP>  (215) 
4.46

>  <Smiles>  (215) 
Cc1cc(Nc2nccc(C(F)(F)F)n2)cc(-c2cccc(S(=O)(=O)O)c2)c1

>  <Standard Type>  (215) 
IC50

>  <Standard Relation>  (215) 
'='

>  <Standard Units>  (215) 
nM

>  <Standard Value>  (215) 
8.5

>  <Assay ChEMBL ID>  (215) 
CHEMBL3888530

>  <Assay Description>  (215) 
Homogeneous Time-Resolved Fluorescence (HTRF) Assay: A recombinant GST-hSYK fusion protein was used to measure potency of compounds to inhibit human Syk activity. The recombinant human GST-SYK (Carna Biosciences #08-176) (5 μM final concentration) was incubated with various concentrations of the inhibitor diluted in DMSO (0.1% final concentration) for 10 minutes at room temperature in 15 mM Tris-HCl (pH 7.5), 0.01% tween 20, 2 mM DTT in 384 well plate format. To initiate the reaction the biotinylated substrate peptide (250 nM final concentration) that contains the phosphorylation site for Syk was added with magnesium (5 mM final concentration) and ATP (25 μM final concentration). Final volume of the reaction was 10 μL. Phosphorylation of the peptide was allowed to proceed for 45' at room temperature. To quench the reaction and detect the phosphorylated product, 2 nM of a Europium-anti-phosphotyrosine antibody (Perkin Elmer #AD0161) and 70 nM SA-APC (Perkin-Elmer #CR130-100) were added together in 15 mM Tris pH 7.5, 40 mM EDTA, 0.01% tween 20. Final volume of the quenching solution was 10 μL. The resulting HTRF signal was measured after 30 minutes on an EnVision (Perkin-Elmer) reader using a time-resolved fluorescence protocol.

>  <BAO Format ID>  (215) 
BAO_0000357

>  <BAO Label>  (215) 
single protein format

>  <Assay Organism>  (215) 
Homo sapiens

>  <Target ChEMBL ID>  (215) 
CHEMBL2599

>  <Target Name>  (215) 
Tyrosine-protein kinase SYK

>  <Target Organism>  (215) 
Homo sapiens

>  <Target Type>  (215) 
SINGLE PROTEIN

>  <Document ChEMBL ID>  (215) 
CHEMBL3886750

>  <Source Description>  (215) 
BindingDB Database

>  <Document Journal>  (215) 
nan

>  <Document Year>  (215) 
2016.0

>  <Active>  (215) 
1.0

>  <bits>  (215) 
<rdkit.DataStructs.cDataStructs.ExplicitBitVect object at 0x00000193F3405E70>

>  <Group>  (215) 
G2

$$$$

     RDKit          2D

 32 36  0  0  0  0  0  0  0  0999 V2000
   -6.0000   -7.7942    0.0000 N   0  0  0  0  0  0  0  0  0  0  0  0
   -5.2500   -6.4952    0.0000 C   0  0  0  0  0  0  0  0  0  0  0  0
   -3.7500   -6.4952    0.0000 O   0  0  0  0  0  0  0  0  0  0  0  0
   -6.0000   -5.1962    0.0000 C   0  0  0  0  0  0  0  0  0  0  0  0
   -7.5000   -5.1962    0.0000 C   0  0  0  0  0  0  0  0  0  0  0  0
   -8.2500   -3.8971    0.0000 C   0  0  0  0  0  0  0  0  0  0  0  0
   -7.5000   -2.5981    0.0000 C   0  0  0  0  0  0  0  0  0  0  0  0
   -6.0000   -2.5981    0.0000 N   0  0  0  0  0  0  0  0  0  0  0  0
   -5.2500   -3.8971    0.0000 C   0  0  0  0  0  0  0  0  0  0  0  0
   -3.7500   -3.8971    0.0000 C   0  0  0  0  0  0  0  0  0  0  0  0
   -3.0000   -2.5981    0.0000 O   0  0  0  0  0  0  0  0  0  0  0  0
   -1.5000   -2.5981    0.0000 C   0  0  0  0  0  0  0  0  0  0  0  0
   -0.7500   -3.8971    0.0000 C   0  0  0  0  0  0  0  0  0  0  0  0
    0.7500   -3.8971    0.0000 C   0  0  0  0  0  0  0  0  0  0  0  0
    1.5000   -5.1962    0.0000 C   0  0  0  0  0  0  0  0  0  0  0  0
    3.0000   -5.1962    0.0000 C   0  0  0  0  0  0  0  0  0  0  0  0
    3.7500   -6.4952    0.0000 C   0  0  0  0  0  0  0  0  0  0  0  0
    3.0000   -7.7942    0.0000 C   0  0  0  0  0  0  0  0  0  0  0  0
    1.5000   -7.7942    0.0000 C   0  0  0  0  0  0  0  0  0  0  0  0
    0.7500   -6.4952    0.0000 C   0  0  0  0  0  0  0  0  0  0  0  0
    0.7500   -9.0933    0.0000 C   0  0  0  0  0  0  0  0  0  0  0  0
    1.5000  -10.3923    0.0000 O   0  0  0  0  0  0  0  0  0  0  0  0
    3.0000  -10.3923    0.0000 C   0  0  0  0  0  0  0  0  0  0  0  0
    3.7500  -11.6913    0.0000 O   0  0  0  0  0  0  0  0  0  0  0  0
    3.7500   -9.0933    0.0000 N   0  0  0  0  0  0  0  0  0  0  0  0
    1.5000   -2.5981    0.0000 C   0  0  0  0  0  0  0  0  0  0  0  0
    0.7500   -1.2990    0.0000 C   0  0  0  0  0  0  0  0  0  0  0  0
    1.5000    0.0000    0.0000 N   0  0  0  0  0  0  0  0  0  0  0  0
    0.7500    1.2990    0.0000 C   0  0  0  0  0  0  0  0  0  0  0  0
   -0.7500    1.2990    0.0000 C   0  0  0  0  0  0  0  0  0  0  0  0
   -1.5000    0.0000    0.0000 C   0  0  0  0  0  0  0  0  0  0  0  0
   -0.7500   -1.2990    0.0000 C   0  0  0  0  0  0  0  0  0  0  0  0
  1  2  1  0
  2  3  2  0
  2  4  1  0
  4  5  2  0
  5  6  1  0
  6  7  2  0
  7  8  1  0
  8  9  2  0
  9 10  1  0
 10 11  1  0
 11 12  1  0
 12 13  2  0
 13 14  1  0
 14 15  1  0
 15 16  2  0
 16 17  1  0
 17 18  2  0
 18 19  1  0
 19 20  2  0
 19 21  1  0
 21 22  1  0
 22 23  1  0
 23 24  2  0
 23 25  1  0
 14 26  2  0
 26 27  1  0
 27 28  2  0
 28 29  1  0
 29 30  2  0
 30 31  1  0
 31 32  2  0
  9  4  1  0
 32 12  1  0
 20 15  1  0
 32 27  1  0
 25 18  1  0
M  END
>  <Compound_ID>  (216) 
CHEMBL3653792

>  <Molecule Name>  (216) 
nan

>  <Molecular Weight>  (216) 
426.43

>  <AlogP>  (216) 
4.04

>  <Smiles>  (216) 
NC(=O)c1cccnc1COc1cc(-c2ccc3c(c2)COC(=O)N3)cc2ncccc12

>  <Standard Type>  (216) 
IC50

>  <Standard Relation>  (216) 
'='

>  <Standard Units>  (216) 
nM

>  <Standard Value>  (216) 
2.4

>  <Assay ChEMBL ID>  (216) 
CHEMBL3706124

>  <Assay Description>  (216) 
Kinase Assay: Recombinant human Syk (amino acids 342-635) was expressed as a fusion protein with an N-terminal GST tag, affinity-purified and deep-frozen at a concentration of approx. 50-100 uM in test buffer (25 mM HEPES pH7.5; 25 mM MgCl2; 5 mM MnCl2; 50 mM KCl; either 0.2% BSA or 0.2% HSA; 0.01% CHAPS; 100 uM Na3VO4; 0.5 mM DTT) and 10% glycerol at -80 C. until use.The catalytic activity of the GST-Syk kinase fusion protein was determined using the Kinase Glo Luminescence Kinase test (Promega; V6712). In this homogeneous test the amount of ATP remaining after the kinase reaction is quantified by a luciferin-luciferase reaction using luminescence. The luminescence signal obtained correlates with the amount of ATP still present and thus correlates inversely with the activity of the protein kinase.MethodThe test compounds were dissolved in 100% DMSO at a concentration of 10 mM and diluted in DMSO to a concentration of 1 mM.

>  <BAO Format ID>  (216) 
BAO_0000357

>  <BAO Label>  (216) 
single protein format

>  <Assay Organism>  (216) 
Homo sapiens

>  <Target ChEMBL ID>  (216) 
CHEMBL2599

>  <Target Name>  (216) 
Tyrosine-protein kinase SYK

>  <Target Organism>  (216) 
Homo sapiens

>  <Target Type>  (216) 
SINGLE PROTEIN

>  <Document ChEMBL ID>  (216) 
CHEMBL3638790

>  <Source Description>  (216) 
BindingDB Database

>  <Document Journal>  (216) 
nan

>  <Document Year>  (216) 
2014.0

>  <Active>  (216) 
1.0

>  <bits>  (216) 
<rdkit.DataStructs.cDataStructs.ExplicitBitVect object at 0x00000193F3407060>

>  <Group>  (216) 
G2

$$$$

     RDKit          2D

 32 36  0  0  0  0  0  0  0  0999 V2000
    0.3207   -8.5658    0.0000 C   0  0  0  0  0  0  0  0  0  0  0  0
    0.4775   -7.0740    0.0000 N   0  0  0  0  0  0  0  0  0  0  0  0
   -0.7360   -6.1923    0.0000 C   0  0  0  0  0  0  0  0  0  0  0  0
    1.8478   -6.4639    0.0000 C   0  0  0  0  0  0  0  0  0  0  0  0
    2.0046   -4.9721    0.0000 C   0  0  0  0  0  0  0  0  0  0  0  0
    3.3037   -4.2221    0.0000 C   0  0  0  0  0  0  0  0  0  0  0  0
    2.9918   -2.7549    0.0000 N   0  0  0  0  0  0  0  0  0  0  0  0
    1.5000   -2.5981    0.0000 N   0  0  0  0  0  0  0  0  0  0  0  0
    0.7500   -1.2990    0.0000 C   0  0  0  0  0  0  0  0  0  0  0  0
    1.5000    0.0000    0.0000 C   0  0  0  0  0  0  0  0  0  0  0  0
    0.7500    1.2990    0.0000 C   0  0  0  0  0  0  0  0  0  0  0  0
   -0.7500    1.2990    0.0000 N   0  0  0  0  0  0  0  0  0  0  0  0
   -1.5000    0.0000    0.0000 C   0  0  0  0  0  0  0  0  0  0  0  0
   -2.9672   -0.3119    0.0000 N   0  0  0  0  0  0  0  0  0  0  0  0
   -3.1240   -1.8037    0.0000 C   0  0  0  0  0  0  0  0  0  0  0  0
   -4.4231   -2.5537    0.0000 C   0  0  0  0  0  0  0  0  0  0  0  0
   -4.5798   -4.0454    0.0000 C   0  0  0  0  0  0  0  0  0  0  0  0
   -6.0471   -4.3573    0.0000 N   0  0  0  0  0  0  0  0  0  0  0  0
   -6.6572   -5.7276    0.0000 C   0  0  0  0  0  0  0  0  0  0  0  0
   -6.7971   -3.0583    0.0000 C   0  0  0  0  0  0  0  0  0  0  0  0
   -8.2643   -2.7464    0.0000 C   0  0  0  0  0  0  0  0  0  0  0  0
   -8.7278   -1.3198    0.0000 C   0  0  0  0  0  0  0  0  0  0  0  0
   -7.7241   -0.2051    0.0000 C   0  0  0  0  0  0  0  0  0  0  0  0
   -8.1876    1.2215    0.0000 S   0  0  0  0  0  0  0  0  0  0  0  0
   -8.6512    2.6481    0.0000 C   0  0  0  0  0  0  0  0  0  0  0  0
   -9.6142    0.7580    0.0000 O   0  0  0  0  0  0  0  0  0  0  0  0
   -6.7611    1.6850    0.0000 O   0  0  0  0  0  0  0  0  0  0  0  0
   -6.2569   -0.5170    0.0000 C   0  0  0  0  0  0  0  0  0  0  0  0
   -5.7934   -1.9435    0.0000 C   0  0  0  0  0  0  0  0  0  0  0  0
   -1.7537   -2.4138    0.0000 N   0  0  0  0  0  0  0  0  0  0  0  0
   -0.7500   -1.2990    0.0000 C   0  0  0  0  0  0  0  0  0  0  0  0
    0.8899   -3.9684    0.0000 C   0  0  0  0  0  0  0  0  0  0  0  0
  1  2  1  0
  2  3  1  0
  2  4  1  0
  4  5  1  0
  5  6  1  0
  6  7  2  0
  7  8  1  0
  8  9  1  0
  9 10  2  0
 10 11  1  0
 11 12  2  0
 12 13  1  0
 13 14  1  0
 14 15  1  0
 15 16  1  0
 16 17  2  0
 17 18  1  0
 18 19  1  0
 18 20  1  0
 20 21  2  0
 21 22  1  0
 22 23  2  0
 23 24  1  0
 24 25  1  0
 24 26  2  0
 24 27  2  0
 23 28  1  0
 28 29  2  0
 15 30  2  0
 30 31  1  0
  8 32  1  0
 32  5  2  0
 31  9  1  0
 31 13  2  0
 29 16  1  0
 29 20  1  0
M  END
>  <Compound_ID>  (217) 
CHEMBL4776352

>  <Molecule Name>  (217) 
nan

>  <Molecular Weight>  (217) 
449.54

>  <AlogP>  (217) 
2.77

>  <Smiles>  (217) 
CN(C)Cc1cnn(-c2ccnc3[nH]c(-c4cn(C)c5ccc(S(C)(=O)=O)cc45)nc23)c1

>  <Standard Type>  (217) 
IC50

>  <Standard Relation>  (217) 
'='

>  <Standard Units>  (217) 
nM

>  <Standard Value>  (217) 
0.077

>  <Assay ChEMBL ID>  (217) 
CHEMBL4669219

>  <Assay Description>  (217) 
Inhibition of SYK (unknown origin)

>  <BAO Format ID>  (217) 
BAO_0000357

>  <BAO Label>  (217) 
single protein format

>  <Assay Organism>  (217) 
Homo sapiens

>  <Target ChEMBL ID>  (217) 
CHEMBL2599

>  <Target Name>  (217) 
Tyrosine-protein kinase SYK

>  <Target Organism>  (217) 
Homo sapiens

>  <Target Type>  (217) 
SINGLE PROTEIN

>  <Document ChEMBL ID>  (217) 
CHEMBL4665716

>  <Source Description>  (217) 
Scientific Literature

>  <Document Journal>  (217) 
Bioorg Med Chem Lett

>  <Document Year>  (217) 
2020.0

>  <Active>  (217) 
1.0

>  <bits>  (217) 
<rdkit.DataStructs.cDataStructs.ExplicitBitVect object at 0x00000193F3404430>

>  <Group>  (217) 
G2

$$$$

     RDKit          2D

 31 34  0  0  0  0  0  0  0  0999 V2000
   -3.5736    1.2902    0.0000 C   0  0  0  0  0  0  0  0  0  0  0  0
   -2.1470    1.7537    0.0000 C   0  0  0  0  0  0  0  0  0  0  0  0
   -1.8351    3.2209    0.0000 C   0  0  0  0  0  0  0  0  0  0  0  0
   -0.4086    3.6844    0.0000 C   0  0  0  0  0  0  0  0  0  0  0  0
   -0.0967    5.1517    0.0000 N   0  0  0  0  0  0  0  0  0  0  0  0
    1.3299    5.6152    0.0000 C   0  0  0  0  0  0  0  0  0  0  0  0
    2.4446    4.6115    0.0000 N   0  0  0  0  0  0  0  0  0  0  0  0
    3.8712    5.0750    0.0000 C   0  0  0  0  0  0  0  0  0  0  0  0
    4.9859    4.0713    0.0000 N   0  0  0  0  0  0  0  0  0  0  0  0
    4.6741    2.6041    0.0000 C   0  0  0  0  0  0  0  0  0  0  0  0
    3.2475    2.1406    0.0000 C   0  0  0  0  0  0  0  0  0  0  0  0
    2.9356    0.6734    0.0000 C   0  0  0  0  0  0  0  0  0  0  0  0
    4.0503   -0.3303    0.0000 C   0  0  0  0  0  0  0  0  0  0  0  0
    5.4769    0.1332    0.0000 C   0  0  0  0  0  0  0  0  0  0  0  0
    5.7888    1.6004    0.0000 C   0  0  0  0  0  0  0  0  0  0  0  0
    7.2154    2.0639    0.0000 N   0  0  0  0  0  0  0  0  0  0  0  0
    4.1831    6.5422    0.0000 N   0  0  0  0  0  0  0  0  0  0  0  0
    3.0684    7.5459    0.0000 N   0  0  0  0  0  0  0  0  0  0  0  0
    1.6418    7.0824    0.0000 C   0  0  0  0  0  0  0  0  0  0  0  0
    0.5271    8.0861    0.0000 C   0  0  0  0  0  0  0  0  0  0  0  0
    0.8389    9.5533    0.0000 N   0  0  0  0  0  0  0  0  0  0  0  0
   -0.8995    7.6226    0.0000 O   0  0  0  0  0  0  0  0  0  0  0  0
    0.7062    2.6807    0.0000 C   0  0  0  0  0  0  0  0  0  0  0  0
    0.3943    1.2135    0.0000 C   0  0  0  0  0  0  0  0  0  0  0  0
    1.2760    0.0000    0.0000 C   0  0  0  0  0  0  0  0  0  0  0  0
    0.3943   -1.2135    0.0000 N   0  0  0  0  0  0  0  0  0  0  0  0
    0.8578   -2.6401    0.0000 C   0  0  0  0  0  0  0  0  0  0  0  0
   -0.1459   -3.7548    0.0000 F   0  0  0  0  0  0  0  0  0  0  0  0
    2.3250   -2.9520    0.0000 F   0  0  0  0  0  0  0  0  0  0  0  0
   -1.0323   -0.7500    0.0000 N   0  0  0  0  0  0  0  0  0  0  0  0
   -1.0323    0.7500    0.0000 C   0  0  0  0  0  0  0  0  0  0  0  0
  1  2  1  0
  2  3  2  0
  3  4  1  0
  4  5  1  0
  5  6  1  0
  6  7  2  0
  7  8  1  0
  8  9  1  0
 10  9  1  1
 10 11  1  0
 11 12  1  0
 12 13  1  0
 13 14  1  0
 14 15  1  0
 15 16  1  1
  8 17  2  0
 17 18  1  0
 18 19  2  0
 19 20  1  0
 20 21  1  0
 20 22  2  0
  4 23  2  0
 23 24  1  0
 24 25  2  0
 25 26  1  0
 26 27  1  0
 27 28  1  0
 27 29  1  0
 26 30  1  0
 30 31  2  0
 31  2  1  0
 19  6  1  0
 31 24  1  0
 15 10  1  0
M  END
>  <Compound_ID>  (218) 
CHEMBL3980587

>  <Molecule Name>  (218) 
nan

>  <Molecular Weight>  (218) 
431.45

>  <AlogP>  (218) 
2.45

>  <Smiles>  (218) 
Cc1cc(Nc2nc(N[C@@H]3CCCC[C@@H]3N)nnc2C(N)=O)cc2cn(C(F)F)nc12

>  <Standard Type>  (218) 
IC50

>  <Standard Relation>  (218) 
'='

>  <Standard Units>  (218) 
nM

>  <Standard Value>  (218) 
0.37

>  <Assay ChEMBL ID>  (218) 
CHEMBL3887308

>  <Assay Description>  (218) 
Syk Kinase Inhibition Assay: The in vitro inhibitory activity of the compound of the present invention against Syk kinase activity was assayed under the following conditions: the purified human Syk protein used in the test were purchased from Carna Biosciences, Inc. For the inhibitory activity assay on the compound, the compound of the present invention was first serially diluted with dimethyl sulfoxide (DMSO). Next, the purified human Syk protein FL-Peptide 22 (final concentration: 1 uM) (Caliper Life Sciences, Inc.), magnesium chloride (final concentration: 5 mM), ATP (final concentration: 30 uM), and each DMSO solution of the compound of the present invention (final concentration of DMSO: 5%) were added into a buffer solution for reaction (20 mM tris-HCl pH 7.5, 20 mM NaCl, 2.5 mM DTT, 0.02% Tween-20, 1% glycerol, 0.01 mM Pefabloc), and the mixture was then incubated at 25° C. for 30 minutes to perform kinase reaction. The kinase reaction was stopped by the addition thereto of EDTA.

>  <BAO Format ID>  (218) 
BAO_0000357

>  <BAO Label>  (218) 
single protein format

>  <Assay Organism>  (218) 
Homo sapiens

>  <Target ChEMBL ID>  (218) 
CHEMBL2599

>  <Target Name>  (218) 
Tyrosine-protein kinase SYK

>  <Target Organism>  (218) 
Homo sapiens

>  <Target Type>  (218) 
SINGLE PROTEIN

>  <Document ChEMBL ID>  (218) 
CHEMBL3886160

>  <Source Description>  (218) 
BindingDB Database

>  <Document Journal>  (218) 
nan

>  <Document Year>  (218) 
2015.0

>  <Active>  (218) 
1.0

>  <bits>  (218) 
<rdkit.DataStructs.cDataStructs.ExplicitBitVect object at 0x00000193F34077D0>

>  <Group>  (218) 
G2

$$$$

     RDKit          2D

 35 39  0  0  0  0  0  0  0  0999 V2000
   -4.3786   -5.1199    0.0000 C   0  0  0  0  0  0  0  0  0  0  0  0
   -2.9520   -4.6564    0.0000 N   0  0  0  0  0  0  0  0  0  0  0  0
   -2.6401   -3.1891    0.0000 C   0  0  0  0  0  0  0  0  0  0  0  0
   -3.7548   -2.1855    0.0000 O   0  0  0  0  0  0  0  0  0  0  0  0
   -1.2135   -2.7256    0.0000 C   0  0  0  0  0  0  0  0  0  0  0  0
   -0.0000   -3.6073    0.0000 N   0  0  0  0  0  0  0  0  0  0  0  0
    1.2135   -2.7256    0.0000 C   0  0  0  0  0  0  0  0  0  0  0  0
    2.6401   -3.1891    0.0000 C   0  0  0  0  0  0  0  0  0  0  0  0
    0.7500   -1.2990    0.0000 N   0  0  0  0  0  0  0  0  0  0  0  0
    1.5000    0.0000    0.0000 C   0  0  0  0  0  0  0  0  0  0  0  0
    0.7500    1.2990    0.0000 C   0  0  0  0  0  0  0  0  0  0  0  0
   -0.7500    1.2990    0.0000 C   0  0  0  0  0  0  0  0  0  0  0  0
   -1.5000    2.5981    0.0000 N   0  0  0  0  0  0  0  0  0  0  0  0
   -0.7500    3.8971    0.0000 C   0  0  0  0  0  0  0  0  0  0  0  0
    0.7500    3.8971    0.0000 N   0  0  0  0  0  0  0  0  0  0  0  0
    1.5000    5.1962    0.0000 C   0  0  0  0  0  0  0  0  0  0  0  0
    0.7500    6.4952    0.0000 C   0  0  0  0  0  0  0  0  0  0  0  0
   -0.7500    6.4952    0.0000 C   0  0  0  0  0  0  0  0  0  0  0  0
   -1.5000    7.7942    0.0000 N   0  0  0  0  0  0  0  0  0  0  0  0
   -2.9918    7.9510    0.0000 C   0  0  0  0  0  0  0  0  0  0  0  0
   -3.3037    9.4182    0.0000 C   0  0  0  0  0  0  0  0  0  0  0  0
   -4.6740   10.0283    0.0000 N   0  0  0  0  0  0  0  0  0  0  0  0
   -4.8308   11.5201    0.0000 C   0  0  0  0  0  0  0  0  0  0  0  0
   -3.6172   12.4018    0.0000 C   0  0  0  0  0  0  0  0  0  0  0  0
   -3.7740   13.8936    0.0000 C   0  0  0  0  0  0  0  0  0  0  0  0
   -5.1443   14.5037    0.0000 O   0  0  0  0  0  0  0  0  0  0  0  0
   -6.3579   13.6220    0.0000 C   0  0  0  0  0  0  0  0  0  0  0  0
   -6.2011   12.1302    0.0000 C   0  0  0  0  0  0  0  0  0  0  0  0
   -7.4146   11.2486    0.0000 N   0  0  0  0  0  0  0  0  0  0  0  0
   -2.0046   10.1682    0.0000 C   0  0  0  0  0  0  0  0  0  0  0  0
   -1.8478   11.6600    0.0000 C   0  0  0  0  0  0  0  0  0  0  0  0
   -0.8899    9.1645    0.0000 N   0  0  0  0  0  0  0  0  0  0  0  0
   -1.5000    5.1962    0.0000 N   0  0  0  0  0  0  0  0  0  0  0  0
   -1.5000    0.0000    0.0000 C   0  0  0  0  0  0  0  0  0  0  0  0
   -0.7500   -1.2990    0.0000 C   0  0  0  0  0  0  0  0  0  0  0  0
  1  2  1  0
  2  3  1  0
  3  4  2  0
  3  5  1  0
  5  6  1  0
  6  7  2  0
  7  8  1  0
  7  9  1  0
  9 10  1  0
 10 11  2  0
 11 12  1  0
 12 13  1  0
 13 14  1  0
 14 15  2  0
 15 16  1  0
 16 17  2  0
 17 18  1  0
 18 19  1  0
 19 20  1  0
 20 21  2  0
 21 22  1  0
 23 22  1  1
 23 24  1  0
 24 25  1  0
 25 26  1  0
 26 27  1  0
 27 28  1  0
 28 29  1  1
 21 30  1  0
 30 31  1  0
 30 32  2  0
 18 33  2  0
 12 34  2  0
 34 35  1  0
 35  5  2  0
 35  9  1  0
 33 14  1  0
 32 19  1  0
 28 23  1  0
M  END
>  <Compound_ID>  (219) 
CHEMBL4741959

>  <Molecule Name>  (219) 
nan

>  <Molecular Weight>  (219) 
476.55

>  <AlogP>  (219) 
1.56

>  <Smiles>  (219) 
CNC(=O)c1nc(C)n2ccc(Nc3nccc(-n4cc(N[C@@H]5CCOC[C@@H]5N)c(C)n4)n3)cc12

>  <Standard Type>  (219) 
IC50

>  <Standard Relation>  (219) 
'='

>  <Standard Units>  (219) 
nM

>  <Standard Value>  (219) 
3.2

>  <Assay ChEMBL ID>  (219) 
CHEMBL4701487

>  <Assay Description>  (219) 
Inhibition of SYK (unknown origin)

>  <BAO Format ID>  (219) 
BAO_0000357

>  <BAO Label>  (219) 
single protein format

>  <Assay Organism>  (219) 
Homo sapiens

>  <Target ChEMBL ID>  (219) 
CHEMBL2599

>  <Target Name>  (219) 
Tyrosine-protein kinase SYK

>  <Target Organism>  (219) 
Homo sapiens

>  <Target Type>  (219) 
SINGLE PROTEIN

>  <Document ChEMBL ID>  (219) 
CHEMBL4699472

>  <Source Description>  (219) 
Scientific Literature

>  <Document Journal>  (219) 
Bioorg Med Chem Lett

>  <Document Year>  (219) 
2020.0

>  <Active>  (219) 
1.0

>  <bits>  (219) 
<rdkit.DataStructs.cDataStructs.ExplicitBitVect object at 0x00000193F3407AE0>

>  <Group>  (219) 
G2

$$$$

     RDKit          2D

 25 28  0  0  0  0  0  0  0  0999 V2000
   -6.1613   14.1083    0.0000 O   0  0  0  0  0  0  0  0  0  0  0  0
   -5.0465   13.1046    0.0000 C   0  0  0  0  0  0  0  0  0  0  0  0
   -3.6200   13.5681    0.0000 C   0  0  0  0  0  0  0  0  0  0  0  0
   -2.5052   12.5644    0.0000 C   0  0  0  0  0  0  0  0  0  0  0  0
   -2.8171   11.0972    0.0000 C   0  0  0  0  0  0  0  0  0  0  0  0
   -4.2437   10.6337    0.0000 C   0  0  0  0  0  0  0  0  0  0  0  0
   -4.5556    9.1664    0.0000 N   0  0  0  0  0  0  0  0  0  0  0  0
   -3.4408    8.1628    0.0000 C   0  0  0  0  0  0  0  0  0  0  0  0
   -3.7527    6.6955    0.0000 N   0  0  0  0  0  0  0  0  0  0  0  0
   -2.6380    5.6918    0.0000 C   0  0  0  0  0  0  0  0  0  0  0  0
   -2.9499    4.2246    0.0000 N   0  0  0  0  0  0  0  0  0  0  0  0
   -1.8351    3.2209    0.0000 C   0  0  0  0  0  0  0  0  0  0  0  0
   -0.4086    3.6844    0.0000 C   0  0  0  0  0  0  0  0  0  0  0  0
    0.7062    2.6807    0.0000 C   0  0  0  0  0  0  0  0  0  0  0  0
    0.3943    1.2135    0.0000 C   0  0  0  0  0  0  0  0  0  0  0  0
    1.2760    0.0000    0.0000 C   0  0  0  0  0  0  0  0  0  0  0  0
    0.3943   -1.2135    0.0000 N   0  0  0  0  0  0  0  0  0  0  0  0
   -1.0323   -0.7500    0.0000 N   0  0  0  0  0  0  0  0  0  0  0  0
   -1.0323    0.7500    0.0000 C   0  0  0  0  0  0  0  0  0  0  0  0
   -2.1470    1.7537    0.0000 C   0  0  0  0  0  0  0  0  0  0  0  0
   -1.2114    6.1554    0.0000 N   0  0  0  0  0  0  0  0  0  0  0  0
   -0.8995    7.6226    0.0000 C   0  0  0  0  0  0  0  0  0  0  0  0
   -2.0143    8.6263    0.0000 C   0  0  0  0  0  0  0  0  0  0  0  0
   -1.7024   10.0935    0.0000 F   0  0  0  0  0  0  0  0  0  0  0  0
   -5.3584   11.6374    0.0000 C   0  0  0  0  0  0  0  0  0  0  0  0
  1  2  1  0
  2  3  2  0
  3  4  1  0
  4  5  2  0
  5  6  1  0
  6  7  1  0
  7  8  1  0
  8  9  2  0
  9 10  1  0
 10 11  1  0
 11 12  1  0
 12 13  2  0
 13 14  1  0
 14 15  2  0
 15 16  1  0
 16 17  2  0
 17 18  1  0
 18 19  1  0
 19 20  2  0
 10 21  2  0
 21 22  1  0
 22 23  2  0
 23 24  1  0
  6 25  2  0
 25  2  1  0
 23  8  1  0
 20 12  1  0
 19 15  1  0
M  END
>  <Compound_ID>  (220) 
CHEMBL3970828

>  <Molecule Name>  (220) 
nan

>  <Molecular Weight>  (220) 
336.33

>  <AlogP>  (220) 
3.68

>  <Smiles>  (220) 
Oc1cccc(Nc2nc(Nc3ccc4cn[nH]c4c3)ncc2F)c1

>  <Standard Type>  (220) 
IC50

>  <Standard Relation>  (220) 
'='

>  <Standard Units>  (220) 
nM

>  <Standard Value>  (220) 
45.0

>  <Assay ChEMBL ID>  (220) 
CHEMBL3889292

>  <Assay Description>  (220) 
Biochemical Assay: Several 2,4-pyrimidinediamine compounds were tested for the ability to inhibit Syk kinase catalyzed phosphorylation of a peptide substrate in a biochemical fluorescenced polarization assay with isolated Syk kinase. In this experiment, Compounds were diluted to 1% DMSO in kinase buffer (20 mM HEPES, pH 7.4, 5 mM MgCl2, 2 mM MnCl2, 1 mM DTT, 0.1 mg/mL acetylated Bovine Gamma Globulin). Compound in 1% DMSO (0.2% DMSO final) was mixed with ATP/substrate solution at room temperature. Syk kinase (Upstate, Lake Placid N.Y.) was added to a final reaction volume of 20 uL, and the reaction was incubated for 30 minutes at room temperature. Final enzyme reaction conditions were 20 mM HEPES, pH 7.4, 5 mM MgCl2, 2 mM MnCl2, 1 mM DTT, 0.1 mg/mL acetylated Bovine Gamma Globulin, 0.125 ng Syk, 4 uM ATP, 2.5 uM peptide substrate (biotin-EQEDEPEGDYEEVLE-CONH2, SynPep Corporation). EDTA (10 mM final)/anti-phosphotyrosine antibody (1x final)/fluorescent phosphopeptide tracer (0.5x final) was added in FP Dilution Buffer to stop the reaction for a total volume of 40 uL according to manufacturer's instructions (PanVera Corporation) The plate was incubated for 30 minutes in the dark at room temperature. Plates were read on a Polarion fluorescence polarization plate reader (Tecan). Data were converted to amount of phosphopeptide present using a calibration curve generated by competition with the phosphopeptide competitor provided in the Tyrosine Kinase Assay Kit, Green (PanVera Corporation).

>  <BAO Format ID>  (220) 
BAO_0000357

>  <BAO Label>  (220) 
single protein format

>  <Assay Organism>  (220) 
Homo sapiens

>  <Target ChEMBL ID>  (220) 
CHEMBL2599

>  <Target Name>  (220) 
Tyrosine-protein kinase SYK

>  <Target Organism>  (220) 
Homo sapiens

>  <Target Type>  (220) 
SINGLE PROTEIN

>  <Document ChEMBL ID>  (220) 
CHEMBL3887020

>  <Source Description>  (220) 
BindingDB Database

>  <Document Journal>  (220) 
nan

>  <Document Year>  (220) 
2016.0

>  <Active>  (220) 
1.0

>  <bits>  (220) 
<rdkit.DataStructs.cDataStructs.ExplicitBitVect object at 0x00000193F3404D60>

>  <Group>  (220) 
G2

$$$$

     RDKit          2D

 30 33  0  0  0  0  0  0  0  0999 V2000
   -1.2990   -5.8573    0.0000 C   0  0  0  0  0  0  0  0  0  0  0  0
   -0.0000   -5.1073    0.0000 C   0  0  0  0  0  0  0  0  0  0  0  0
   -0.0000   -3.6073    0.0000 N   0  0  0  0  0  0  0  0  0  0  0  0
    1.2135   -2.7256    0.0000 C   0  0  0  0  0  0  0  0  0  0  0  0
    0.7500   -1.2990    0.0000 C   0  0  0  0  0  0  0  0  0  0  0  0
    1.5000    0.0000    0.0000 C   0  0  0  0  0  0  0  0  0  0  0  0
    0.7500    1.2990    0.0000 C   0  0  0  0  0  0  0  0  0  0  0  0
   -0.7500    1.2990    0.0000 C   0  0  0  0  0  0  0  0  0  0  0  0
   -1.5000    2.5981    0.0000 N   0  0  0  0  0  0  0  0  0  0  0  0
   -0.7500    3.8971    0.0000 C   0  0  0  0  0  0  0  0  0  0  0  0
    0.7500    3.8971    0.0000 N   0  0  0  0  0  0  0  0  0  0  0  0
    1.5000    5.1962    0.0000 C   0  0  0  0  0  0  0  0  0  0  0  0
    3.0000    5.1962    0.0000 N   0  0  0  0  0  0  0  0  0  0  0  0
    3.7500    3.8971    0.0000 C   0  0  0  0  0  0  0  0  0  0  0  0
    5.2458    4.0092    0.0000 C   0  0  0  0  0  0  0  0  0  0  0  0
    6.2661    2.9096    0.0000 C   0  0  0  0  0  0  0  0  0  0  0  0
    6.0425    1.4264    0.0000 C   0  0  0  0  0  0  0  0  0  0  0  0
    4.7435    0.6764    0.0000 C   0  0  0  0  0  0  0  0  0  0  0  0
    3.3472    1.2244    0.0000 C   0  0  0  0  0  0  0  0  0  0  0  0
    2.9050    2.6578    0.0000 C   0  0  0  0  0  0  0  0  0  0  0  0
    1.4218    2.8813    0.0000 N   0  0  0  0  0  0  0  0  0  0  0  0
    0.7500    6.4952    0.0000 N   0  0  0  0  0  0  0  0  0  0  0  0
   -0.7500    6.4952    0.0000 N   0  0  0  0  0  0  0  0  0  0  0  0
   -1.5000    5.1962    0.0000 C   0  0  0  0  0  0  0  0  0  0  0  0
   -3.0000    5.1962    0.0000 C   0  0  0  0  0  0  0  0  0  0  0  0
   -3.7500    6.4952    0.0000 N   0  0  0  0  0  0  0  0  0  0  0  0
   -3.7500    3.8971    0.0000 O   0  0  0  0  0  0  0  0  0  0  0  0
   -1.5000    0.0000    0.0000 C   0  0  0  0  0  0  0  0  0  0  0  0
   -0.7500   -1.2990    0.0000 C   0  0  0  0  0  0  0  0  0  0  0  0
   -1.2135   -2.7256    0.0000 N   0  0  0  0  0  0  0  0  0  0  0  0
  1  2  1  0
  2  3  1  0
  3  4  1  0
  4  5  2  0
  5  6  1  0
  6  7  2  0
  7  8  1  0
  8  9  1  0
  9 10  1  0
 10 11  2  0
 11 12  1  0
 12 13  1  0
 14 13  1  6
 14 15  1  0
 15 16  1  0
 16 17  1  0
 17 18  1  0
 18 19  1  0
 19 20  1  0
 20 21  1  6
 12 22  2  0
 22 23  1  0
 23 24  2  0
 24 25  1  0
 25 26  1  0
 25 27  2  0
  8 28  2  0
 28 29  1  0
 29 30  2  0
 30  3  1  0
 29  5  1  0
 24 10  1  0
 20 14  1  0
M  END
>  <Compound_ID>  (221) 
CHEMBL3977902

>  <Molecule Name>  (221) 
nan

>  <Molecular Weight>  (221) 
409.5

>  <AlogP>  (221) 
2.16

>  <Smiles>  (221) 
CCn1cc2ccc(Nc3nc(N[C@@H]4CCCCC[C@@H]4N)nnc3C(N)=O)cc2n1

>  <Standard Type>  (221) 
IC50

>  <Standard Relation>  (221) 
'='

>  <Standard Units>  (221) 
nM

>  <Standard Value>  (221) 
0.31

>  <Assay ChEMBL ID>  (221) 
CHEMBL3887308

>  <Assay Description>  (221) 
Syk Kinase Inhibition Assay: The in vitro inhibitory activity of the compound of the present invention against Syk kinase activity was assayed under the following conditions: the purified human Syk protein used in the test were purchased from Carna Biosciences, Inc. For the inhibitory activity assay on the compound, the compound of the present invention was first serially diluted with dimethyl sulfoxide (DMSO). Next, the purified human Syk protein FL-Peptide 22 (final concentration: 1 uM) (Caliper Life Sciences, Inc.), magnesium chloride (final concentration: 5 mM), ATP (final concentration: 30 uM), and each DMSO solution of the compound of the present invention (final concentration of DMSO: 5%) were added into a buffer solution for reaction (20 mM tris-HCl pH 7.5, 20 mM NaCl, 2.5 mM DTT, 0.02% Tween-20, 1% glycerol, 0.01 mM Pefabloc), and the mixture was then incubated at 25° C. for 30 minutes to perform kinase reaction. The kinase reaction was stopped by the addition thereto of EDTA.

>  <BAO Format ID>  (221) 
BAO_0000357

>  <BAO Label>  (221) 
single protein format

>  <Assay Organism>  (221) 
Homo sapiens

>  <Target ChEMBL ID>  (221) 
CHEMBL2599

>  <Target Name>  (221) 
Tyrosine-protein kinase SYK

>  <Target Organism>  (221) 
Homo sapiens

>  <Target Type>  (221) 
SINGLE PROTEIN

>  <Document ChEMBL ID>  (221) 
CHEMBL3886160

>  <Source Description>  (221) 
BindingDB Database

>  <Document Journal>  (221) 
nan

>  <Document Year>  (221) 
2015.0

>  <Active>  (221) 
1.0

>  <bits>  (221) 
<rdkit.DataStructs.cDataStructs.ExplicitBitVect object at 0x00000193F34060A0>

>  <Group>  (221) 
G2

$$$$

     RDKit          2D

 31 35  0  0  0  0  0  0  0  0999 V2000
    3.0000    0.0000    0.0000 C   0  0  0  0  0  0  0  0  0  0  0  0
    1.5000    0.0000    0.0000 N   0  0  0  0  0  0  0  0  0  0  0  0
    0.7500   -1.2990    0.0000 C   0  0  0  0  0  0  0  0  0  0  0  0
   -0.7500   -1.2990    0.0000 N   0  0  0  0  0  0  0  0  0  0  0  0
   -1.5000    0.0000    0.0000 C   0  0  0  0  0  0  0  0  0  0  0  0
   -3.0000    0.0000    0.0000 C   0  0  0  0  0  0  0  0  0  0  0  0
   -3.7500    1.2990    0.0000 C   0  0  0  0  0  0  0  0  0  0  0  0
   -5.2500    1.2990    0.0000 C   0  0  0  0  0  0  0  0  0  0  0  0
   -6.0000    2.5981    0.0000 C   0  0  0  0  0  0  0  0  0  0  0  0
   -7.5000    2.5981    0.0000 C   0  0  0  0  0  0  0  0  0  0  0  0
   -8.2500    1.2990    0.0000 C   0  0  0  0  0  0  0  0  0  0  0  0
   -9.7500    1.2990    0.0000 N   0  0  0  0  0  0  0  0  0  0  0  0
  -10.5000    2.5981    0.0000 C   0  0  0  0  0  0  0  0  0  0  0  0
  -12.0000    2.5981    0.0000 C   0  0  0  0  0  0  0  0  0  0  0  0
  -12.7500    1.2990    0.0000 N   0  0  0  0  0  0  0  0  0  0  0  0
  -12.0000    0.0000    0.0000 C   0  0  0  0  0  0  0  0  0  0  0  0
  -10.5000    0.0000    0.0000 C   0  0  0  0  0  0  0  0  0  0  0  0
   -7.5000    0.0000    0.0000 C   0  0  0  0  0  0  0  0  0  0  0  0
   -6.0000    0.0000    0.0000 C   0  0  0  0  0  0  0  0  0  0  0  0
   -3.0000    2.5981    0.0000 N   0  0  0  0  0  0  0  0  0  0  0  0
   -1.5000    2.5981    0.0000 C   0  0  0  0  0  0  0  0  0  0  0  0
   -0.7500    3.8971    0.0000 N   0  0  0  0  0  0  0  0  0  0  0  0
   -1.3601    5.2674    0.0000 C   0  0  0  0  0  0  0  0  0  0  0  0
   -0.2454    6.2711    0.0000 C   0  0  0  0  0  0  0  0  0  0  0  0
    1.0537    5.5211    0.0000 C   0  0  0  0  0  0  0  0  0  0  0  0
    2.4240    6.1312    0.0000 N   0  0  0  0  0  0  0  0  0  0  0  0
    3.6375    5.2496    0.0000 O   0  0  0  0  0  0  0  0  0  0  0  0
    0.7418    4.0539    0.0000 C   0  0  0  0  0  0  0  0  0  0  0  0
   -0.7500    1.2990    0.0000 C   0  0  0  0  0  0  0  0  0  0  0  0
    0.7500    1.2990    0.0000 C   0  0  0  0  0  0  0  0  0  0  0  0
    1.5000    2.5981    0.0000 O   0  0  0  0  0  0  0  0  0  0  0  0
  1  2  1  0
  2  3  1  0
  3  4  2  0
  4  5  1  0
  5  6  2  0
  6  7  1  0
  7  8  1  0
  8  9  2  0
  9 10  1  0
 10 11  2  0
 11 12  1  0
 12 13  1  0
 13 14  1  0
 14 15  1  0
 15 16  1  0
 16 17  1  0
 11 18  1  0
 18 19  2  0
  7 20  2  0
 20 21  1  0
 21 22  1  0
 22 23  1  0
 23 24  1  0
 24 25  1  0
 25 26  1  0
 26 27  2  0
 25 28  1  0
 21 29  2  0
 29 30  1  0
 30 31  2  0
 30  2  1  0
 29  5  1  0
 19  8  1  0
 28 22  1  0
 17 12  1  0
M  END
>  <Compound_ID>  (222) 
CHEMBL3641277

>  <Molecule Name>  (222) 
nan

>  <Molecular Weight>  (222) 
419.49

>  <AlogP>  (222) 
1.75

>  <Smiles>  (222) 
Cn1cnc2cc(-c3ccc(N4CCNCC4)cc3)nc(N3CCC(N=O)C3)c2c1=O

>  <Standard Type>  (222) 
IC50

>  <Standard Relation>  (222) 
'='

>  <Standard Units>  (222) 
nM

>  <Standard Value>  (222) 
65.0

>  <Assay ChEMBL ID>  (222) 
CHEMBL3705362

>  <Assay Description>  (222) 
Mobility-Shift kinase assay: Compounds of the examples provided herein were assessed for their ability to inhibit Syk kinase by utilizing Caliper Life Sciences' proprietary LabChip technology. The off-chip incubation mobility-shift kinase assay uses a microfluidic chip to measure the conversion of a fluorescent peptide substrate to a phosphorylated product. The reaction mixture, from a microtiter plate well, is introduced through a capillary sipper onto the chip, where the nonphosphorylated substrate and phosphorylated product are separated by electrophoresis and detected via laser induced fluorescence. The signature of the fluorescence signal over time reveals the extent of the reaction. The phosphorylated product migrates through the chip faster than the non-phosphorylated substrate, and signals from the two forms of the peptide appear as distinct peaks.

>  <BAO Format ID>  (222) 
BAO_0000357

>  <BAO Label>  (222) 
single protein format

>  <Assay Organism>  (222) 
Homo sapiens

>  <Target ChEMBL ID>  (222) 
CHEMBL2599

>  <Target Name>  (222) 
Tyrosine-protein kinase SYK

>  <Target Organism>  (222) 
Homo sapiens

>  <Target Type>  (222) 
SINGLE PROTEIN

>  <Document ChEMBL ID>  (222) 
CHEMBL3639055

>  <Source Description>  (222) 
BindingDB Database

>  <Document Journal>  (222) 
nan

>  <Document Year>  (222) 
2014.0

>  <Active>  (222) 
1.0

>  <bits>  (222) 
<rdkit.DataStructs.cDataStructs.ExplicitBitVect object at 0x00000193F3407D10>

>  <Group>  (222) 
G2

$$$$

     RDKit          2D

 35 39  0  0  0  0  0  0  0  0999 V2000
   -1.2990   -7.3573    0.0000 C   0  0  0  0  0  0  0  0  0  0  0  0
   -1.2990   -5.8573    0.0000 N   0  0  0  0  0  0  0  0  0  0  0  0
   -2.5981   -5.1073    0.0000 C   0  0  0  0  0  0  0  0  0  0  0  0
   -3.8971   -5.8573    0.0000 C   0  0  0  0  0  0  0  0  0  0  0  0
   -5.1962   -5.1073    0.0000 C   0  0  0  0  0  0  0  0  0  0  0  0
   -6.4952   -5.8573    0.0000 N   0  0  0  0  0  0  0  0  0  0  0  0
   -7.7942   -5.1073    0.0000 C   0  0  0  0  0  0  0  0  0  0  0  0
   -9.0933   -5.8573    0.0000 C   0  0  0  0  0  0  0  0  0  0  0  0
   -9.0933   -7.3573    0.0000 O   0  0  0  0  0  0  0  0  0  0  0  0
   -7.7942   -8.1073    0.0000 C   0  0  0  0  0  0  0  0  0  0  0  0
   -6.4952   -7.3573    0.0000 C   0  0  0  0  0  0  0  0  0  0  0  0
   -0.0000   -5.1073    0.0000 C   0  0  0  0  0  0  0  0  0  0  0  0
    1.2990   -5.8573    0.0000 O   0  0  0  0  0  0  0  0  0  0  0  0
   -0.0000   -3.6073    0.0000 C   0  0  0  0  0  0  0  0  0  0  0  0
    1.2135   -2.7256    0.0000 C   0  0  0  0  0  0  0  0  0  0  0  0
    0.7500   -1.2990    0.0000 C   0  0  0  0  0  0  0  0  0  0  0  0
    1.5000    0.0000    0.0000 C   0  0  0  0  0  0  0  0  0  0  0  0
    0.7500    1.2990    0.0000 C   0  0  0  0  0  0  0  0  0  0  0  0
    1.5000    2.5981    0.0000 N   0  0  0  0  0  0  0  0  0  0  0  0
    3.0000    2.5981    0.0000 C   0  0  0  0  0  0  0  0  0  0  0  0
    3.7500    1.2990    0.0000 N   0  0  0  0  0  0  0  0  0  0  0  0
    5.2500    1.2990    0.0000 C   0  0  0  0  0  0  0  0  0  0  0  0
    6.0000    2.5981    0.0000 C   0  0  0  0  0  0  0  0  0  0  0  0
    5.2500    3.8971    0.0000 C   0  0  0  0  0  0  0  0  0  0  0  0
    6.0000    5.1962    0.0000 C   0  0  0  0  0  0  0  0  0  0  0  0
    7.5000    5.1962    0.0000 C   0  0  0  0  0  0  0  0  0  0  0  0
    8.2500    6.4952    0.0000 C   0  0  0  0  0  0  0  0  0  0  0  0
    7.5000    7.7942    0.0000 C   0  0  0  0  0  0  0  0  0  0  0  0
    6.0000    7.7942    0.0000 C   0  0  0  0  0  0  0  0  0  0  0  0
    5.2500    6.4952    0.0000 N   0  0  0  0  0  0  0  0  0  0  0  0
    3.7500    3.8971    0.0000 N   0  0  0  0  0  0  0  0  0  0  0  0
   -0.7500    1.2990    0.0000 C   0  0  0  0  0  0  0  0  0  0  0  0
   -1.5000    0.0000    0.0000 C   0  0  0  0  0  0  0  0  0  0  0  0
   -0.7500   -1.2990    0.0000 C   0  0  0  0  0  0  0  0  0  0  0  0
   -1.2135   -2.7256    0.0000 N   0  0  0  0  0  0  0  0  0  0  0  0
  1  2  1  0
  2  3  1  0
  3  4  1  0
  4  5  1  0
  5  6  1  0
  6  7  1  0
  7  8  1  0
  8  9  1  0
  9 10  1  0
 10 11  1  0
  2 12  1  0
 12 13  2  0
 12 14  1  0
 14 15  2  0
 15 16  1  0
 16 17  2  0
 17 18  1  0
 18 19  1  0
 19 20  1  0
 20 21  2  0
 21 22  1  0
 22 23  2  0
 23 24  1  0
 24 25  1  0
 25 26  2  0
 26 27  1  0
 27 28  2  0
 28 29  1  0
 29 30  2  0
 24 31  2  0
 18 32  2  0
 32 33  1  0
 33 34  2  0
 34 35  1  0
 11  6  1  0
 35 14  1  0
 34 16  1  0
 31 20  1  0
 30 25  1  0
M  END
>  <Compound_ID>  (223) 
CHEMBL3641638

>  <Molecule Name>  (223) 
nan

>  <Molecular Weight>  (223) 
471.57

>  <AlogP>  (223) 
3.56

>  <Smiles>  (223) 
CN(CCCN1CCOCC1)C(=O)c1cc2cc(Nc3nccc(-c4ccccn4)n3)ccc2[nH]1

>  <Standard Type>  (223) 
IC50

>  <Standard Relation>  (223) 
'='

>  <Standard Units>  (223) 
nM

>  <Standard Value>  (223) 
22.8

>  <Assay ChEMBL ID>  (223) 
CHEMBL3705803

>  <Assay Description>  (223) 
Kinase Glo Luminescence Kinase Assay: Recombinant human Syk (amino acids 342-635) was expressed as a fusion protein with an N-terminal GST tag, affinity-purified and deep-frozen at a concentration of approx. 50-100 uM in test buffer (25 mM HEPES pH7.5; 25 mM MgCl2; 5 mM MnCl2; 50 mM KCl; 0.2% BSA; 0.01% CHAPS; 100 uM Na3VO4; 0.5 mM DTT) and 10% glycerol at -80 C until use. The catalytic activity of the GST-Syk kinase fusion protein was determined using the Kinase Glo Luminescence Kinase test (Promega; V6712). In this homogeneous test the amount of ATP remaining after the kinase reaction is quantified by a luciferin-luciferase reaction using luminescence. The luminescence signal obtained correlates with the amount of ATP still present and thus correlates inversely with the activity of the protein kinase. The test compounds were dissolved in 100% DMSO at a concentration of 10 mM and diluted in DMSO to a concentration of 1 mM.

>  <BAO Format ID>  (223) 
BAO_0000357

>  <BAO Label>  (223) 
single protein format

>  <Assay Organism>  (223) 
Homo sapiens

>  <Target ChEMBL ID>  (223) 
CHEMBL2599

>  <Target Name>  (223) 
Tyrosine-protein kinase SYK

>  <Target Organism>  (223) 
Homo sapiens

>  <Target Type>  (223) 
SINGLE PROTEIN

>  <Document ChEMBL ID>  (223) 
CHEMBL3638486

>  <Source Description>  (223) 
BindingDB Database

>  <Document Journal>  (223) 
nan

>  <Document Year>  (223) 
2014.0

>  <Active>  (223) 
1.0

>  <bits>  (223) 
<rdkit.DataStructs.cDataStructs.ExplicitBitVect object at 0x00000193F34043C0>

>  <Group>  (223) 
G2

$$$$

     RDKit          2D

 32 35  0  0  0  0  0  0  0  0999 V2000
    2.7760   -1.5000    0.0000 C   0  0  0  0  0  0  0  0  0  0  0  0
    2.7760    0.0000    0.0000 C   0  0  0  0  0  0  0  0  0  0  0  0
    2.7760    1.5000    0.0000 C   0  0  0  0  0  0  0  0  0  0  0  0
    4.2760    0.0000    0.0000 C   0  0  0  0  0  0  0  0  0  0  0  0
    1.2760    0.0000    0.0000 N   0  0  0  0  0  0  0  0  0  0  0  0
    0.3943    1.2135    0.0000 C   0  0  0  0  0  0  0  0  0  0  0  0
   -1.0323    0.7500    0.0000 C   0  0  0  0  0  0  0  0  0  0  0  0
   -2.3313    1.5000    0.0000 C   0  0  0  0  0  0  0  0  0  0  0  0
   -3.6304    0.7500    0.0000 C   0  0  0  0  0  0  0  0  0  0  0  0
   -4.9294    1.5000    0.0000 N   0  0  0  0  0  0  0  0  0  0  0  0
   -4.9294    3.0000    0.0000 C   0  0  0  0  0  0  0  0  0  0  0  0
   -3.6304    3.7500    0.0000 N   0  0  0  0  0  0  0  0  0  0  0  0
   -3.6304    5.2500    0.0000 C   0  0  0  0  0  0  0  0  0  0  0  0
   -2.3313    6.0000    0.0000 N   0  0  0  0  0  0  0  0  0  0  0  0
   -1.0323    5.2500    0.0000 C   0  0  0  0  0  0  0  0  0  0  0  0
   -1.0323    3.7500    0.0000 C   0  0  0  0  0  0  0  0  0  0  0  0
    0.2668    3.0000    0.0000 C   0  0  0  0  0  0  0  0  0  0  0  0
    1.5658    3.7500    0.0000 O   0  0  0  0  0  0  0  0  0  0  0  0
    1.5658    5.2500    0.0000 C   0  0  0  0  0  0  0  0  0  0  0  0
    0.2668    6.0000    0.0000 C   0  0  0  0  0  0  0  0  0  0  0  0
    0.2668    7.5000    0.0000 N   0  0  0  0  0  0  0  0  0  0  0  0
   -4.9294    6.0000    0.0000 N   0  0  0  0  0  0  0  0  0  0  0  0
   -6.2284    5.2500    0.0000 N   0  0  0  0  0  0  0  0  0  0  0  0
   -6.2284    3.7500    0.0000 C   0  0  0  0  0  0  0  0  0  0  0  0
   -7.5275    3.0000    0.0000 C   0  0  0  0  0  0  0  0  0  0  0  0
   -8.8265    3.7500    0.0000 N   0  0  0  0  0  0  0  0  0  0  0  0
   -7.5275    1.5000    0.0000 O   0  0  0  0  0  0  0  0  0  0  0  0
   -3.6304   -0.7500    0.0000 C   0  0  0  0  0  0  0  0  0  0  0  0
   -2.3313   -1.5000    0.0000 C   0  0  0  0  0  0  0  0  0  0  0  0
   -2.3313   -3.0000    0.0000 Cl  0  0  0  0  0  0  0  0  0  0  0  0
   -1.0323   -0.7500    0.0000 C   0  0  0  0  0  0  0  0  0  0  0  0
    0.3943   -1.2135    0.0000 N   0  0  0  0  0  0  0  0  0  0  0  0
  1  2  1  0
  2  3  1  0
  2  4  1  0
  2  5  1  0
  5  6  1  0
  6  7  2  0
  7  8  1  0
  8  9  2  0
  9 10  1  0
 10 11  1  0
 11 12  2  0
 12 13  1  0
 13 14  1  0
 15 14  1  1
 15 16  1  0
 16 17  1  0
 17 18  1  0
 18 19  1  0
 19 20  1  0
 20 21  1  1
 13 22  2  0
 22 23  1  0
 23 24  2  0
 24 25  1  0
 25 26  1  0
 25 27  2  0
  9 28  1  0
 28 29  2  0
 29 30  1  0
 29 31  1  0
 31 32  2  0
 32  5  1  0
 31  7  1  0
 24 11  1  0
 20 15  1  0
M  END
>  <Compound_ID>  (224) 
CHEMBL3983643

>  <Molecule Name>  (224) 
nan

>  <Molecular Weight>  (224) 
459.94

>  <AlogP>  (224) 
2.00

>  <Smiles>  (224) 
CC(C)(C)n1cc2cc(Nc3nc(N[C@@H]4CCOC[C@@H]4N)nnc3C(N)=O)cc(Cl)c2n1

>  <Standard Type>  (224) 
IC50

>  <Standard Relation>  (224) 
'='

>  <Standard Units>  (224) 
nM

>  <Standard Value>  (224) 
0.41

>  <Assay ChEMBL ID>  (224) 
CHEMBL3887308

>  <Assay Description>  (224) 
Syk Kinase Inhibition Assay: The in vitro inhibitory activity of the compound of the present invention against Syk kinase activity was assayed under the following conditions: the purified human Syk protein used in the test were purchased from Carna Biosciences, Inc. For the inhibitory activity assay on the compound, the compound of the present invention was first serially diluted with dimethyl sulfoxide (DMSO). Next, the purified human Syk protein FL-Peptide 22 (final concentration: 1 uM) (Caliper Life Sciences, Inc.), magnesium chloride (final concentration: 5 mM), ATP (final concentration: 30 uM), and each DMSO solution of the compound of the present invention (final concentration of DMSO: 5%) were added into a buffer solution for reaction (20 mM tris-HCl pH 7.5, 20 mM NaCl, 2.5 mM DTT, 0.02% Tween-20, 1% glycerol, 0.01 mM Pefabloc), and the mixture was then incubated at 25° C. for 30 minutes to perform kinase reaction. The kinase reaction was stopped by the addition thereto of EDTA.

>  <BAO Format ID>  (224) 
BAO_0000357

>  <BAO Label>  (224) 
single protein format

>  <Assay Organism>  (224) 
Homo sapiens

>  <Target ChEMBL ID>  (224) 
CHEMBL2599

>  <Target Name>  (224) 
Tyrosine-protein kinase SYK

>  <Target Organism>  (224) 
Homo sapiens

>  <Target Type>  (224) 
SINGLE PROTEIN

>  <Document ChEMBL ID>  (224) 
CHEMBL3886160

>  <Source Description>  (224) 
BindingDB Database

>  <Document Journal>  (224) 
nan

>  <Document Year>  (224) 
2015.0

>  <Active>  (224) 
1.0

>  <bits>  (224) 
<rdkit.DataStructs.cDataStructs.ExplicitBitVect object at 0x00000193F3405380>

>  <Group>  (224) 
G2

$$$$

     RDKit          2D

 25 28  0  0  0  0  0  0  0  0999 V2000
   -7.5000   -7.7942    0.0000 C   0  0  0  0  0  0  0  0  0  0  0  0
   -6.0000   -7.7942    0.0000 O   0  0  0  0  0  0  0  0  0  0  0  0
   -5.2500   -6.4952    0.0000 C   0  0  0  0  0  0  0  0  0  0  0  0
   -6.0000   -5.1962    0.0000 C   0  0  0  0  0  0  0  0  0  0  0  0
   -5.2500   -3.8971    0.0000 C   0  0  0  0  0  0  0  0  0  0  0  0
   -3.7500   -3.8971    0.0000 N   0  0  0  0  0  0  0  0  0  0  0  0
   -3.0000   -5.1962    0.0000 C   0  0  0  0  0  0  0  0  0  0  0  0
   -1.5000   -5.1962    0.0000 C   0  0  0  0  0  0  0  0  0  0  0  0
   -0.7500   -6.4952    0.0000 C   0  0  0  0  0  0  0  0  0  0  0  0
    0.7500   -6.4952    0.0000 C   0  0  0  0  0  0  0  0  0  0  0  0
    1.5000   -5.1962    0.0000 N   0  0  0  0  0  0  0  0  0  0  0  0
    0.7500   -3.8971    0.0000 C   0  0  0  0  0  0  0  0  0  0  0  0
    1.5000   -2.5981    0.0000 N   0  0  0  0  0  0  0  0  0  0  0  0
    0.7500   -1.2990    0.0000 C   0  0  0  0  0  0  0  0  0  0  0  0
    1.5000    0.0000    0.0000 C   0  0  0  0  0  0  0  0  0  0  0  0
    0.7500    1.2990    0.0000 C   0  0  0  0  0  0  0  0  0  0  0  0
   -0.7500    1.2990    0.0000 C   0  0  0  0  0  0  0  0  0  0  0  0
   -1.7537    2.4138    0.0000 N   0  0  0  0  0  0  0  0  0  0  0  0
   -3.1240    1.8037    0.0000 C   0  0  0  0  0  0  0  0  0  0  0  0
   -4.4231    2.5537    0.0000 C   0  0  0  0  0  0  0  0  0  0  0  0
   -2.9672    0.3119    0.0000 C   0  0  0  0  0  0  0  0  0  0  0  0
   -1.5000    0.0000    0.0000 C   0  0  0  0  0  0  0  0  0  0  0  0
   -0.7500   -1.2990    0.0000 C   0  0  0  0  0  0  0  0  0  0  0  0
   -0.7500   -3.8971    0.0000 N   0  0  0  0  0  0  0  0  0  0  0  0
   -3.7500   -6.4952    0.0000 C   0  0  0  0  0  0  0  0  0  0  0  0
  1  2  1  0
  2  3  1  0
  3  4  2  0
  4  5  1  0
  5  6  2  0
  6  7  1  0
  7  8  1  0
  8  9  2  0
  9 10  1  0
 10 11  2  0
 11 12  1  0
 12 13  1  0
 13 14  1  0
 14 15  2  0
 15 16  1  0
 16 17  2  0
 17 18  1  0
 18 19  1  0
 19 20  1  0
 19 21  2  0
 21 22  1  0
 22 23  2  0
 12 24  2  0
  7 25  2  0
 25  3  1  0
 24  8  1  0
 23 14  1  0
 22 17  1  0
M  END
>  <Compound_ID>  (225) 
CHEMBL3641528

>  <Molecule Name>  (225) 
nan

>  <Molecular Weight>  (225) 
331.38

>  <AlogP>  (225) 
4.08

>  <Smiles>  (225) 
COc1ccnc(-c2ccnc(Nc3ccc4[nH]c(C)cc4c3)n2)c1

>  <Standard Type>  (225) 
IC50

>  <Standard Relation>  (225) 
'='

>  <Standard Units>  (225) 
nM

>  <Standard Value>  (225) 
9.9

>  <Assay ChEMBL ID>  (225) 
CHEMBL3705803

>  <Assay Description>  (225) 
Kinase Glo Luminescence Kinase Assay: Recombinant human Syk (amino acids 342-635) was expressed as a fusion protein with an N-terminal GST tag, affinity-purified and deep-frozen at a concentration of approx. 50-100 uM in test buffer (25 mM HEPES pH7.5; 25 mM MgCl2; 5 mM MnCl2; 50 mM KCl; 0.2% BSA; 0.01% CHAPS; 100 uM Na3VO4; 0.5 mM DTT) and 10% glycerol at -80 C until use. The catalytic activity of the GST-Syk kinase fusion protein was determined using the Kinase Glo Luminescence Kinase test (Promega; V6712). In this homogeneous test the amount of ATP remaining after the kinase reaction is quantified by a luciferin-luciferase reaction using luminescence. The luminescence signal obtained correlates with the amount of ATP still present and thus correlates inversely with the activity of the protein kinase. The test compounds were dissolved in 100% DMSO at a concentration of 10 mM and diluted in DMSO to a concentration of 1 mM.

>  <BAO Format ID>  (225) 
BAO_0000357

>  <BAO Label>  (225) 
single protein format

>  <Assay Organism>  (225) 
Homo sapiens

>  <Target ChEMBL ID>  (225) 
CHEMBL2599

>  <Target Name>  (225) 
Tyrosine-protein kinase SYK

>  <Target Organism>  (225) 
Homo sapiens

>  <Target Type>  (225) 
SINGLE PROTEIN

>  <Document ChEMBL ID>  (225) 
CHEMBL3638486

>  <Source Description>  (225) 
BindingDB Database

>  <Document Journal>  (225) 
nan

>  <Document Year>  (225) 
2014.0

>  <Active>  (225) 
1.0

>  <bits>  (225) 
<rdkit.DataStructs.cDataStructs.ExplicitBitVect object at 0x00000193F3404F20>

>  <Group>  (225) 
G2

$$$$

     RDKit          2D

 37 41  0  0  0  0  0  0  0  0999 V2000
   -5.1962   -8.1073    0.0000 C   0  0  0  0  0  0  0  0  0  0  0  0
   -3.8971   -7.3573    0.0000 N   0  0  0  0  0  0  0  0  0  0  0  0
   -3.8971   -5.8573    0.0000 C   0  0  0  0  0  0  0  0  0  0  0  0
   -2.5981   -5.1073    0.0000 C   0  0  0  0  0  0  0  0  0  0  0  0
   -1.2990   -5.8573    0.0000 N   0  0  0  0  0  0  0  0  0  0  0  0
   -0.0000   -5.1073    0.0000 C   0  0  0  0  0  0  0  0  0  0  0  0
    1.2990   -5.8573    0.0000 O   0  0  0  0  0  0  0  0  0  0  0  0
   -0.0000   -3.6073    0.0000 C   0  0  0  0  0  0  0  0  0  0  0  0
    1.2135   -2.7256    0.0000 C   0  0  0  0  0  0  0  0  0  0  0  0
    0.7500   -1.2990    0.0000 C   0  0  0  0  0  0  0  0  0  0  0  0
    1.5000    0.0000    0.0000 C   0  0  0  0  0  0  0  0  0  0  0  0
    0.7500    1.2990    0.0000 C   0  0  0  0  0  0  0  0  0  0  0  0
    1.5000    2.5981    0.0000 N   0  0  0  0  0  0  0  0  0  0  0  0
    3.0000    2.5981    0.0000 C   0  0  0  0  0  0  0  0  0  0  0  0
    3.7500    1.2990    0.0000 N   0  0  0  0  0  0  0  0  0  0  0  0
    5.2500    1.2990    0.0000 C   0  0  0  0  0  0  0  0  0  0  0  0
    6.0000    2.5981    0.0000 C   0  0  0  0  0  0  0  0  0  0  0  0
    5.2500    3.8971    0.0000 C   0  0  0  0  0  0  0  0  0  0  0  0
    6.0000    5.1962    0.0000 C   0  0  0  0  0  0  0  0  0  0  0  0
    7.5000    5.1962    0.0000 C   0  0  0  0  0  0  0  0  0  0  0  0
    8.2500    6.4952    0.0000 C   0  0  0  0  0  0  0  0  0  0  0  0
    9.7500    6.4952    0.0000 C   0  0  0  0  0  0  0  0  0  0  0  0
    9.7500    7.9952    0.0000 C   0  0  0  0  0  0  0  0  0  0  0  0
    9.7500    4.9952    0.0000 C   0  0  0  0  0  0  0  0  0  0  0  0
   11.2500    6.4952    0.0000 C   0  0  0  0  0  0  0  0  0  0  0  0
   12.7500    6.4952    0.0000 N   0  0  0  0  0  0  0  0  0  0  0  0
    7.5000    7.7942    0.0000 C   0  0  0  0  0  0  0  0  0  0  0  0
    6.0000    7.7942    0.0000 C   0  0  0  0  0  0  0  0  0  0  0  0
    5.2500    6.4952    0.0000 N   0  0  0  0  0  0  0  0  0  0  0  0
    3.7500    3.8971    0.0000 N   0  0  0  0  0  0  0  0  0  0  0  0
   -0.7500    1.2990    0.0000 C   0  0  0  0  0  0  0  0  0  0  0  0
   -1.5000    0.0000    0.0000 C   0  0  0  0  0  0  0  0  0  0  0  0
   -0.7500   -1.2990    0.0000 C   0  0  0  0  0  0  0  0  0  0  0  0
   -1.2135   -2.7256    0.0000 N   0  0  0  0  0  0  0  0  0  0  0  0
   -2.6401   -3.1891    0.0000 C   0  0  0  0  0  0  0  0  0  0  0  0
   -1.2990   -7.3573    0.0000 C   0  0  0  0  0  0  0  0  0  0  0  0
   -2.5981   -8.1073    0.0000 C   0  0  0  0  0  0  0  0  0  0  0  0
  1  2  1  0
  2  3  1  0
  3  4  1  0
  4  5  1  0
  5  6  1  0
  6  7  2  0
  6  8  1  0
  8  9  2  0
  9 10  1  0
 10 11  2  0
 11 12  1  0
 12 13  1  0
 13 14  1  0
 14 15  2  0
 15 16  1  0
 16 17  2  0
 17 18  1  0
 18 19  1  0
 19 20  2  0
 20 21  1  0
 21 22  1  0
 22 23  1  0
 22 24  1  0
 22 25  1  0
 25 26  3  0
 21 27  2  0
 27 28  1  0
 28 29  2  0
 18 30  2  0
 12 31  2  0
 31 32  1  0
 32 33  2  0
 33 34  1  0
 34 35  1  0
  5 36  1  0
 36 37  1  0
 37  2  1  0
 34  8  1  0
 33 10  1  0
 30 14  1  0
 29 19  1  0
M  END
>  <Compound_ID>  (226) 
CHEMBL3641547

>  <Molecule Name>  (226) 
nan

>  <Molecular Weight>  (226) 
494.6

>  <AlogP>  (226) 
3.96

>  <Smiles>  (226) 
CN1CCN(C(=O)c2cc3cc(Nc4nccc(-c5cc(C(C)(C)C#N)ccn5)n4)ccc3n2C)CC1

>  <Standard Type>  (226) 
IC50

>  <Standard Relation>  (226) 
'='

>  <Standard Units>  (226) 
nM

>  <Standard Value>  (226) 
3.2

>  <Assay ChEMBL ID>  (226) 
CHEMBL3705803

>  <Assay Description>  (226) 
Kinase Glo Luminescence Kinase Assay: Recombinant human Syk (amino acids 342-635) was expressed as a fusion protein with an N-terminal GST tag, affinity-purified and deep-frozen at a concentration of approx. 50-100 uM in test buffer (25 mM HEPES pH7.5; 25 mM MgCl2; 5 mM MnCl2; 50 mM KCl; 0.2% BSA; 0.01% CHAPS; 100 uM Na3VO4; 0.5 mM DTT) and 10% glycerol at -80 C until use. The catalytic activity of the GST-Syk kinase fusion protein was determined using the Kinase Glo Luminescence Kinase test (Promega; V6712). In this homogeneous test the amount of ATP remaining after the kinase reaction is quantified by a luciferin-luciferase reaction using luminescence. The luminescence signal obtained correlates with the amount of ATP still present and thus correlates inversely with the activity of the protein kinase. The test compounds were dissolved in 100% DMSO at a concentration of 10 mM and diluted in DMSO to a concentration of 1 mM.

>  <BAO Format ID>  (226) 
BAO_0000357

>  <BAO Label>  (226) 
single protein format

>  <Assay Organism>  (226) 
Homo sapiens

>  <Target ChEMBL ID>  (226) 
CHEMBL2599

>  <Target Name>  (226) 
Tyrosine-protein kinase SYK

>  <Target Organism>  (226) 
Homo sapiens

>  <Target Type>  (226) 
SINGLE PROTEIN

>  <Document ChEMBL ID>  (226) 
CHEMBL3638486

>  <Source Description>  (226) 
BindingDB Database

>  <Document Journal>  (226) 
nan

>  <Document Year>  (226) 
2014.0

>  <Active>  (226) 
1.0

>  <bits>  (226) 
<rdkit.DataStructs.cDataStructs.ExplicitBitVect object at 0x00000193F3405CB0>

>  <Group>  (226) 
G2

$$$$

     RDKit          2D

 32 36  0  0  0  0  0  0  0  0999 V2000
   -7.8594    2.1594    0.0000 O   0  0  0  0  0  0  0  0  0  0  0  0
   -6.7447    1.1557    0.0000 C   0  0  0  0  0  0  0  0  0  0  0  0
   -7.0565   -0.3115    0.0000 C   0  0  0  0  0  0  0  0  0  0  0  0
   -5.9418   -1.3152    0.0000 C   0  0  0  0  0  0  0  0  0  0  0  0
   -6.2537   -2.7824    0.0000 N   0  0  0  0  0  0  0  0  0  0  0  0
   -7.6240   -3.3925    0.0000 N   0  0  0  0  0  0  0  0  0  0  0  0
   -7.4672   -4.8843    0.0000 C   0  0  0  0  0  0  0  0  0  0  0  0
   -6.0000   -5.1962    0.0000 C   0  0  0  0  0  0  0  0  0  0  0  0
   -5.2500   -6.4952    0.0000 C   0  0  0  0  0  0  0  0  0  0  0  0
   -3.7500   -6.4952    0.0000 C   0  0  0  0  0  0  0  0  0  0  0  0
   -3.0000   -7.7942    0.0000 N   0  0  0  0  0  0  0  0  0  0  0  0
   -1.5000   -7.7942    0.0000 C   0  0  0  0  0  0  0  0  0  0  0  0
   -0.7500   -9.0933    0.0000 N   0  0  0  0  0  0  0  0  0  0  0  0
    0.7500   -9.0933    0.0000 C   0  0  0  0  0  0  0  0  0  0  0  0
    1.5000   -7.7942    0.0000 C   0  0  0  0  0  0  0  0  0  0  0  0
    3.0000   -7.7942    0.0000 F   0  0  0  0  0  0  0  0  0  0  0  0
    0.7500   -6.4952    0.0000 C   0  0  0  0  0  0  0  0  0  0  0  0
    1.5000   -5.1962    0.0000 N   0  0  0  0  0  0  0  0  0  0  0  0
    0.7500   -3.8971    0.0000 C   0  0  0  0  0  0  0  0  0  0  0  0
   -0.7500   -3.8971    0.0000 C   0  0  0  0  0  0  0  0  0  0  0  0
   -1.5000   -2.5981    0.0000 C   0  0  0  0  0  0  0  0  0  0  0  0
   -0.7500   -1.2990    0.0000 C   0  0  0  0  0  0  0  0  0  0  0  0
    0.7500   -1.2990    0.0000 C   0  0  0  0  0  0  0  0  0  0  0  0
    1.5000   -2.5981    0.0000 C   0  0  0  0  0  0  0  0  0  0  0  0
    1.5000    0.0000    0.0000 O   0  0  0  0  0  0  0  0  0  0  0  0
    0.7500    1.2990    0.0000 C   0  0  0  0  0  0  0  0  0  0  0  0
   -0.7500    1.2990    0.0000 C   0  0  0  0  0  0  0  0  0  0  0  0
   -1.5000    0.0000    0.0000 O   0  0  0  0  0  0  0  0  0  0  0  0
   -0.7500   -6.4952    0.0000 N   0  0  0  0  0  0  0  0  0  0  0  0
   -3.0000   -5.1962    0.0000 C   0  0  0  0  0  0  0  0  0  0  0  0
   -3.7500   -3.8971    0.0000 C   0  0  0  0  0  0  0  0  0  0  0  0
   -5.2500   -3.8971    0.0000 C   0  0  0  0  0  0  0  0  0  0  0  0
  1  2  1  0
  2  3  1  0
  3  4  1  0
  4  5  1  0
  5  6  1  0
  6  7  2  0
  7  8  1  0
  8  9  2  0
  9 10  1  0
 10 11  1  0
 11 12  1  0
 12 13  2  0
 13 14  1  0
 14 15  2  0
 15 16  1  0
 15 17  1  0
 17 18  1  0
 18 19  1  0
 19 20  2  0
 20 21  1  0
 21 22  2  0
 22 23  1  0
 23 24  2  0
 23 25  1  0
 25 26  1  0
 26 27  1  0
 27 28  1  0
 17 29  2  0
 10 30  2  0
 30 31  1  0
 31 32  2  0
 32  5  1  0
 32  8  1  0
 29 12  1  0
 24 19  1  0
 28 22  1  0
M  END
>  <Compound_ID>  (227) 
CHEMBL3889526

>  <Molecule Name>  (227) 
nan

>  <Molecular Weight>  (227) 
436.45

>  <AlogP>  (227) 
3.61

>  <Smiles>  (227) 
OCCCn1ncc2cc(Nc3ncc(F)c(Nc4ccc5c(c4)OCCO5)n3)ccc21

>  <Standard Type>  (227) 
IC50

>  <Standard Relation>  (227) 
'='

>  <Standard Units>  (227) 
nM

>  <Standard Value>  (227) 
26.5

>  <Assay ChEMBL ID>  (227) 
CHEMBL3889292

>  <Assay Description>  (227) 
Biochemical Assay: Several 2,4-pyrimidinediamine compounds were tested for the ability to inhibit Syk kinase catalyzed phosphorylation of a peptide substrate in a biochemical fluorescenced polarization assay with isolated Syk kinase. In this experiment, Compounds were diluted to 1% DMSO in kinase buffer (20 mM HEPES, pH 7.4, 5 mM MgCl2, 2 mM MnCl2, 1 mM DTT, 0.1 mg/mL acetylated Bovine Gamma Globulin). Compound in 1% DMSO (0.2% DMSO final) was mixed with ATP/substrate solution at room temperature. Syk kinase (Upstate, Lake Placid N.Y.) was added to a final reaction volume of 20 uL, and the reaction was incubated for 30 minutes at room temperature. Final enzyme reaction conditions were 20 mM HEPES, pH 7.4, 5 mM MgCl2, 2 mM MnCl2, 1 mM DTT, 0.1 mg/mL acetylated Bovine Gamma Globulin, 0.125 ng Syk, 4 uM ATP, 2.5 uM peptide substrate (biotin-EQEDEPEGDYEEVLE-CONH2, SynPep Corporation). EDTA (10 mM final)/anti-phosphotyrosine antibody (1x final)/fluorescent phosphopeptide tracer (0.5x final) was added in FP Dilution Buffer to stop the reaction for a total volume of 40 uL according to manufacturer's instructions (PanVera Corporation) The plate was incubated for 30 minutes in the dark at room temperature. Plates were read on a Polarion fluorescence polarization plate reader (Tecan). Data were converted to amount of phosphopeptide present using a calibration curve generated by competition with the phosphopeptide competitor provided in the Tyrosine Kinase Assay Kit, Green (PanVera Corporation).

>  <BAO Format ID>  (227) 
BAO_0000357

>  <BAO Label>  (227) 
single protein format

>  <Assay Organism>  (227) 
Homo sapiens

>  <Target ChEMBL ID>  (227) 
CHEMBL2599

>  <Target Name>  (227) 
Tyrosine-protein kinase SYK

>  <Target Organism>  (227) 
Homo sapiens

>  <Target Type>  (227) 
SINGLE PROTEIN

>  <Document ChEMBL ID>  (227) 
CHEMBL3887020

>  <Source Description>  (227) 
BindingDB Database

>  <Document Journal>  (227) 
nan

>  <Document Year>  (227) 
2016.0

>  <Active>  (227) 
1.0

>  <bits>  (227) 
<rdkit.DataStructs.cDataStructs.ExplicitBitVect object at 0x00000193F3404E40>

>  <Group>  (227) 
G2

$$$$

     RDKit          2D

 27 30  0  0  0  0  0  0  0  0999 V2000
   -1.2990   -7.3573    0.0000 C   0  0  0  0  0  0  0  0  0  0  0  0
   -1.2990   -5.8573    0.0000 N   0  0  0  0  0  0  0  0  0  0  0  0
   -2.5981   -5.1073    0.0000 C   0  0  0  0  0  0  0  0  0  0  0  0
   -0.0000   -5.1073    0.0000 C   0  0  0  0  0  0  0  0  0  0  0  0
    1.2990   -5.8573    0.0000 O   0  0  0  0  0  0  0  0  0  0  0  0
   -0.0000   -3.6073    0.0000 C   0  0  0  0  0  0  0  0  0  0  0  0
    1.2135   -2.7256    0.0000 C   0  0  0  0  0  0  0  0  0  0  0  0
    0.7500   -1.2990    0.0000 C   0  0  0  0  0  0  0  0  0  0  0  0
    1.5000    0.0000    0.0000 C   0  0  0  0  0  0  0  0  0  0  0  0
    0.7500    1.2990    0.0000 C   0  0  0  0  0  0  0  0  0  0  0  0
    1.5000    2.5981    0.0000 N   0  0  0  0  0  0  0  0  0  0  0  0
    3.0000    2.5981    0.0000 C   0  0  0  0  0  0  0  0  0  0  0  0
    3.7500    1.2990    0.0000 N   0  0  0  0  0  0  0  0  0  0  0  0
    5.2500    1.2990    0.0000 C   0  0  0  0  0  0  0  0  0  0  0  0
    6.0000    2.5981    0.0000 C   0  0  0  0  0  0  0  0  0  0  0  0
    5.2500    3.8971    0.0000 C   0  0  0  0  0  0  0  0  0  0  0  0
    6.0000    5.1962    0.0000 C   0  0  0  0  0  0  0  0  0  0  0  0
    7.5000    5.1962    0.0000 C   0  0  0  0  0  0  0  0  0  0  0  0
    8.2500    6.4952    0.0000 C   0  0  0  0  0  0  0  0  0  0  0  0
    7.5000    7.7942    0.0000 C   0  0  0  0  0  0  0  0  0  0  0  0
    6.0000    7.7942    0.0000 C   0  0  0  0  0  0  0  0  0  0  0  0
    5.2500    6.4952    0.0000 N   0  0  0  0  0  0  0  0  0  0  0  0
    3.7500    3.8971    0.0000 N   0  0  0  0  0  0  0  0  0  0  0  0
   -0.7500    1.2990    0.0000 C   0  0  0  0  0  0  0  0  0  0  0  0
   -1.5000    0.0000    0.0000 C   0  0  0  0  0  0  0  0  0  0  0  0
   -0.7500   -1.2990    0.0000 C   0  0  0  0  0  0  0  0  0  0  0  0
   -1.2135   -2.7256    0.0000 N   0  0  0  0  0  0  0  0  0  0  0  0
  1  2  1  0
  2  3  1  0
  2  4  1  0
  4  5  2  0
  4  6  1  0
  6  7  2  0
  7  8  1  0
  8  9  2  0
  9 10  1  0
 10 11  1  0
 11 12  1  0
 12 13  2  0
 13 14  1  0
 14 15  2  0
 15 16  1  0
 16 17  1  0
 17 18  2  0
 18 19  1  0
 19 20  2  0
 20 21  1  0
 21 22  2  0
 16 23  2  0
 10 24  2  0
 24 25  1  0
 25 26  2  0
 26 27  1  0
 27  6  1  0
 26  8  1  0
 23 12  1  0
 22 17  1  0
M  END
>  <Compound_ID>  (228) 
CHEMBL3641549

>  <Molecule Name>  (228) 
nan

>  <Molecular Weight>  (228) 
358.41

>  <AlogP>  (228) 
3.47

>  <Smiles>  (228) 
CN(C)C(=O)c1cc2cc(Nc3nccc(-c4ccccn4)n3)ccc2[nH]1

>  <Standard Type>  (228) 
IC50

>  <Standard Relation>  (228) 
'='

>  <Standard Units>  (228) 
nM

>  <Standard Value>  (228) 
23.7

>  <Assay ChEMBL ID>  (228) 
CHEMBL3705803

>  <Assay Description>  (228) 
Kinase Glo Luminescence Kinase Assay: Recombinant human Syk (amino acids 342-635) was expressed as a fusion protein with an N-terminal GST tag, affinity-purified and deep-frozen at a concentration of approx. 50-100 uM in test buffer (25 mM HEPES pH7.5; 25 mM MgCl2; 5 mM MnCl2; 50 mM KCl; 0.2% BSA; 0.01% CHAPS; 100 uM Na3VO4; 0.5 mM DTT) and 10% glycerol at -80 C until use. The catalytic activity of the GST-Syk kinase fusion protein was determined using the Kinase Glo Luminescence Kinase test (Promega; V6712). In this homogeneous test the amount of ATP remaining after the kinase reaction is quantified by a luciferin-luciferase reaction using luminescence. The luminescence signal obtained correlates with the amount of ATP still present and thus correlates inversely with the activity of the protein kinase. The test compounds were dissolved in 100% DMSO at a concentration of 10 mM and diluted in DMSO to a concentration of 1 mM.

>  <BAO Format ID>  (228) 
BAO_0000357

>  <BAO Label>  (228) 
single protein format

>  <Assay Organism>  (228) 
Homo sapiens

>  <Target ChEMBL ID>  (228) 
CHEMBL2599

>  <Target Name>  (228) 
Tyrosine-protein kinase SYK

>  <Target Organism>  (228) 
Homo sapiens

>  <Target Type>  (228) 
SINGLE PROTEIN

>  <Document ChEMBL ID>  (228) 
CHEMBL3638486

>  <Source Description>  (228) 
BindingDB Database

>  <Document Journal>  (228) 
nan

>  <Document Year>  (228) 
2014.0

>  <Active>  (228) 
1.0

>  <bits>  (228) 
<rdkit.DataStructs.cDataStructs.ExplicitBitVect object at 0x00000193F34075A0>

>  <Group>  (228) 
G2

$$$$

     RDKit          2D

 36 40  0  0  0  0  0  0  0  0999 V2000
   -5.1962   -8.1073    0.0000 C   0  0  0  0  0  0  0  0  0  0  0  0
   -3.8971   -7.3573    0.0000 N   0  0  0  0  0  0  0  0  0  0  0  0
   -3.8971   -5.8573    0.0000 C   0  0  0  0  0  0  0  0  0  0  0  0
   -2.5981   -5.1073    0.0000 C   0  0  0  0  0  0  0  0  0  0  0  0
   -1.2990   -5.8573    0.0000 N   0  0  0  0  0  0  0  0  0  0  0  0
   -0.0000   -5.1073    0.0000 C   0  0  0  0  0  0  0  0  0  0  0  0
    1.2990   -5.8573    0.0000 O   0  0  0  0  0  0  0  0  0  0  0  0
   -0.0000   -3.6073    0.0000 C   0  0  0  0  0  0  0  0  0  0  0  0
    1.2135   -2.7256    0.0000 C   0  0  0  0  0  0  0  0  0  0  0  0
    0.7500   -1.2990    0.0000 C   0  0  0  0  0  0  0  0  0  0  0  0
    1.5000    0.0000    0.0000 C   0  0  0  0  0  0  0  0  0  0  0  0
    0.7500    1.2990    0.0000 C   0  0  0  0  0  0  0  0  0  0  0  0
    1.5000    2.5981    0.0000 N   0  0  0  0  0  0  0  0  0  0  0  0
    3.0000    2.5981    0.0000 C   0  0  0  0  0  0  0  0  0  0  0  0
    3.7500    1.2990    0.0000 N   0  0  0  0  0  0  0  0  0  0  0  0
    5.2500    1.2990    0.0000 C   0  0  0  0  0  0  0  0  0  0  0  0
    6.0000    2.5981    0.0000 C   0  0  0  0  0  0  0  0  0  0  0  0
    5.2500    3.8971    0.0000 C   0  0  0  0  0  0  0  0  0  0  0  0
    6.0000    5.1962    0.0000 C   0  0  0  0  0  0  0  0  0  0  0  0
    7.5000    5.1962    0.0000 C   0  0  0  0  0  0  0  0  0  0  0  0
    8.2500    6.4952    0.0000 C   0  0  0  0  0  0  0  0  0  0  0  0
    9.7500    6.4952    0.0000 O   0  0  0  0  0  0  0  0  0  0  0  0
   10.5000    5.1962    0.0000 C   0  0  0  0  0  0  0  0  0  0  0  0
   12.0000    5.1962    0.0000 C   0  0  0  0  0  0  0  0  0  0  0  0
   12.7500    3.8971    0.0000 O   0  0  0  0  0  0  0  0  0  0  0  0
    7.5000    7.7942    0.0000 C   0  0  0  0  0  0  0  0  0  0  0  0
    6.0000    7.7942    0.0000 C   0  0  0  0  0  0  0  0  0  0  0  0
    5.2500    6.4952    0.0000 N   0  0  0  0  0  0  0  0  0  0  0  0
    3.7500    3.8971    0.0000 N   0  0  0  0  0  0  0  0  0  0  0  0
   -0.7500    1.2990    0.0000 C   0  0  0  0  0  0  0  0  0  0  0  0
   -1.5000    0.0000    0.0000 C   0  0  0  0  0  0  0  0  0  0  0  0
   -0.7500   -1.2990    0.0000 C   0  0  0  0  0  0  0  0  0  0  0  0
   -1.2135   -2.7256    0.0000 N   0  0  0  0  0  0  0  0  0  0  0  0
   -2.6401   -3.1891    0.0000 C   0  0  0  0  0  0  0  0  0  0  0  0
   -1.2990   -7.3573    0.0000 C   0  0  0  0  0  0  0  0  0  0  0  0
   -2.5981   -8.1073    0.0000 C   0  0  0  0  0  0  0  0  0  0  0  0
  1  2  1  0
  2  3  1  0
  3  4  1  0
  4  5  1  0
  5  6  1  0
  6  7  2  0
  6  8  1  0
  8  9  2  0
  9 10  1  0
 10 11  2  0
 11 12  1  0
 12 13  1  0
 13 14  1  0
 14 15  2  0
 15 16  1  0
 16 17  2  0
 17 18  1  0
 18 19  1  0
 19 20  2  0
 20 21  1  0
 21 22  1  0
 22 23  1  0
 23 24  1  0
 24 25  1  0
 21 26  2  0
 26 27  1  0
 27 28  2  0
 18 29  2  0
 12 30  2  0
 30 31  1  0
 31 32  2  0
 32 33  1  0
 33 34  1  0
  5 35  1  0
 35 36  1  0
 36  2  1  0
 33  8  1  0
 32 10  1  0
 29 14  1  0
 28 19  1  0
M  END
>  <Compound_ID>  (229) 
CHEMBL3641546

>  <Molecule Name>  (229) 
nan

>  <Molecular Weight>  (229) 
487.56

>  <AlogP>  (229) 
2.53

>  <Smiles>  (229) 
CN1CCN(C(=O)c2cc3cc(Nc4nccc(-c5cc(OCCO)ccn5)n4)ccc3n2C)CC1

>  <Standard Type>  (229) 
IC50

>  <Standard Relation>  (229) 
'='

>  <Standard Units>  (229) 
nM

>  <Standard Value>  (229) 
42.0

>  <Assay ChEMBL ID>  (229) 
CHEMBL3705803

>  <Assay Description>  (229) 
Kinase Glo Luminescence Kinase Assay: Recombinant human Syk (amino acids 342-635) was expressed as a fusion protein with an N-terminal GST tag, affinity-purified and deep-frozen at a concentration of approx. 50-100 uM in test buffer (25 mM HEPES pH7.5; 25 mM MgCl2; 5 mM MnCl2; 50 mM KCl; 0.2% BSA; 0.01% CHAPS; 100 uM Na3VO4; 0.5 mM DTT) and 10% glycerol at -80 C until use. The catalytic activity of the GST-Syk kinase fusion protein was determined using the Kinase Glo Luminescence Kinase test (Promega; V6712). In this homogeneous test the amount of ATP remaining after the kinase reaction is quantified by a luciferin-luciferase reaction using luminescence. The luminescence signal obtained correlates with the amount of ATP still present and thus correlates inversely with the activity of the protein kinase. The test compounds were dissolved in 100% DMSO at a concentration of 10 mM and diluted in DMSO to a concentration of 1 mM.

>  <BAO Format ID>  (229) 
BAO_0000357

>  <BAO Label>  (229) 
single protein format

>  <Assay Organism>  (229) 
Homo sapiens

>  <Target ChEMBL ID>  (229) 
CHEMBL2599

>  <Target Name>  (229) 
Tyrosine-protein kinase SYK

>  <Target Organism>  (229) 
Homo sapiens

>  <Target Type>  (229) 
SINGLE PROTEIN

>  <Document ChEMBL ID>  (229) 
CHEMBL3638486

>  <Source Description>  (229) 
BindingDB Database

>  <Document Journal>  (229) 
nan

>  <Document Year>  (229) 
2014.0

>  <Active>  (229) 
1.0

>  <bits>  (229) 
<rdkit.DataStructs.cDataStructs.ExplicitBitVect object at 0x00000193F3404120>

>  <Group>  (229) 
G2

$$$$

     RDKit          2D

 31 33  0  0  0  0  0  0  0  0999 V2000
    9.8894    8.3963    0.0000 C   0  0  0  0  0  0  0  0  0  0  0  0
    8.4628    7.9328    0.0000 O   0  0  0  0  0  0  0  0  0  0  0  0
    7.3481    8.9365    0.0000 C   0  0  0  0  0  0  0  0  0  0  0  0
    5.9215    8.4730    0.0000 C   0  0  0  0  0  0  0  0  0  0  0  0
    5.6097    7.0058    0.0000 N   0  0  0  0  0  0  0  0  0  0  0  0
    4.8068    9.4767    0.0000 C   0  0  0  0  0  0  0  0  0  0  0  0
    5.1187   10.9439    0.0000 C   0  0  0  0  0  0  0  0  0  0  0  0
    3.3802    9.0132    0.0000 N   0  0  0  0  0  0  0  0  0  0  0  0
    3.0684    7.5459    0.0000 C   0  0  0  0  0  0  0  0  0  0  0  0
    4.1831    6.5422    0.0000 N   0  0  0  0  0  0  0  0  0  0  0  0
    3.8712    5.0750    0.0000 N   0  0  0  0  0  0  0  0  0  0  0  0
    2.4446    4.6115    0.0000 C   0  0  0  0  0  0  0  0  0  0  0  0
    2.1328    3.1443    0.0000 C   0  0  0  0  0  0  0  0  0  0  0  0
    3.2475    2.1406    0.0000 N   0  0  0  0  0  0  0  0  0  0  0  0
    0.7062    2.6807    0.0000 O   0  0  0  0  0  0  0  0  0  0  0  0
    1.3299    5.6152    0.0000 C   0  0  0  0  0  0  0  0  0  0  0  0
   -0.0967    5.1517    0.0000 N   0  0  0  0  0  0  0  0  0  0  0  0
   -1.2114    6.1554    0.0000 C   0  0  0  0  0  0  0  0  0  0  0  0
   -2.6380    5.6918    0.0000 C   0  0  0  0  0  0  0  0  0  0  0  0
   -3.7527    6.6955    0.0000 C   0  0  0  0  0  0  0  0  0  0  0  0
   -5.1793    6.2320    0.0000 C   0  0  0  0  0  0  0  0  0  0  0  0
   -3.4408    8.1628    0.0000 C   0  0  0  0  0  0  0  0  0  0  0  0
   -2.0143    8.6263    0.0000 C   0  0  0  0  0  0  0  0  0  0  0  0
   -2.0143   10.1263    0.0000 C   0  0  0  0  0  0  0  0  0  0  0  0
   -3.4408   10.5898    0.0000 N   0  0  0  0  0  0  0  0  0  0  0  0
   -4.3225    9.3763    0.0000 N   0  0  0  0  0  0  0  0  0  0  0  0
   -5.8225    9.3763    0.0000 C   0  0  0  0  0  0  0  0  0  0  0  0
   -6.5725   10.6753    0.0000 C   0  0  0  0  0  0  0  0  0  0  0  0
   -6.5725    8.0772    0.0000 C   0  0  0  0  0  0  0  0  0  0  0  0
   -0.8995    7.6226    0.0000 C   0  0  0  0  0  0  0  0  0  0  0  0
    1.6418    7.0824    0.0000 N   0  0  0  0  0  0  0  0  0  0  0  0
  1  2  1  0
  2  3  1  0
  3  4  1  0
  4  5  1  6
  4  6  1  0
  6  7  1  6
  6  8  1  0
  8  9  1  0
  9 10  2  0
 10 11  1  0
 11 12  2  0
 12 13  1  0
 13 14  1  0
 13 15  2  0
 12 16  1  0
 16 17  1  0
 17 18  1  0
 18 19  2  0
 19 20  1  0
 20 21  1  0
 20 22  2  0
 22 23  1  0
 23 24  1  0
 24 25  2  0
 25 26  1  0
 26 27  1  0
 27 28  1  0
 27 29  1  0
 23 30  2  0
 16 31  2  0
 31  9  1  0
 30 18  1  0
 26 22  1  0
M  END
>  <Compound_ID>  (230) 
CHEMBL4106524

>  <Molecule Name>  (230) 
nan

>  <Molecular Weight>  (230) 
427.51

>  <AlogP>  (230) 
1.73

>  <Smiles>  (230) 
COC[C@H](N)[C@@H](C)Nc1nnc(C(N)=O)c(Nc2cc(C)c3c(cnn3C(C)C)c2)n1

>  <Standard Type>  (230) 
IC50

>  <Standard Relation>  (230) 
'='

>  <Standard Units>  (230) 
nM

>  <Standard Value>  (230) 
0.34

>  <Assay ChEMBL ID>  (230) 
CHEMBL3887308

>  <Assay Description>  (230) 
Syk Kinase Inhibition Assay: The in vitro inhibitory activity of the compound of the present invention against Syk kinase activity was assayed under the following conditions: the purified human Syk protein used in the test were purchased from Carna Biosciences, Inc. For the inhibitory activity assay on the compound, the compound of the present invention was first serially diluted with dimethyl sulfoxide (DMSO). Next, the purified human Syk protein FL-Peptide 22 (final concentration: 1 uM) (Caliper Life Sciences, Inc.), magnesium chloride (final concentration: 5 mM), ATP (final concentration: 30 uM), and each DMSO solution of the compound of the present invention (final concentration of DMSO: 5%) were added into a buffer solution for reaction (20 mM tris-HCl pH 7.5, 20 mM NaCl, 2.5 mM DTT, 0.02% Tween-20, 1% glycerol, 0.01 mM Pefabloc), and the mixture was then incubated at 25° C. for 30 minutes to perform kinase reaction. The kinase reaction was stopped by the addition thereto of EDTA.

>  <BAO Format ID>  (230) 
BAO_0000357

>  <BAO Label>  (230) 
single protein format

>  <Assay Organism>  (230) 
Homo sapiens

>  <Target ChEMBL ID>  (230) 
CHEMBL2599

>  <Target Name>  (230) 
Tyrosine-protein kinase SYK

>  <Target Organism>  (230) 
Homo sapiens

>  <Target Type>  (230) 
SINGLE PROTEIN

>  <Document ChEMBL ID>  (230) 
CHEMBL3886160

>  <Source Description>  (230) 
BindingDB Database

>  <Document Journal>  (230) 
nan

>  <Document Year>  (230) 
2015.0

>  <Active>  (230) 
1.0

>  <bits>  (230) 
<rdkit.DataStructs.cDataStructs.ExplicitBitVect object at 0x00000193F3404200>

>  <Group>  (230) 
G2

$$$$

     RDKit          2D

 32 37  0  0  0  0  0  0  0  0999 V2000
    4.6740   -4.8322    0.0000 C   0  0  0  0  0  0  0  0  0  0  0  0
    3.3037   -4.2221    0.0000 C   0  0  0  0  0  0  0  0  0  0  0  0
    2.9918   -2.7549    0.0000 N   0  0  0  0  0  0  0  0  0  0  0  0
    1.5000   -2.5981    0.0000 N   0  0  0  0  0  0  0  0  0  0  0  0
    0.7500   -1.2990    0.0000 C   0  0  0  0  0  0  0  0  0  0  0  0
    1.5000    0.0000    0.0000 C   0  0  0  0  0  0  0  0  0  0  0  0
    0.7500    1.2990    0.0000 C   0  0  0  0  0  0  0  0  0  0  0  0
   -0.7500    1.2990    0.0000 N   0  0  0  0  0  0  0  0  0  0  0  0
   -1.5000    0.0000    0.0000 C   0  0  0  0  0  0  0  0  0  0  0  0
   -2.9672   -0.3119    0.0000 N   0  0  0  0  0  0  0  0  0  0  0  0
   -3.1240   -1.8037    0.0000 C   0  0  0  0  0  0  0  0  0  0  0  0
   -4.4231   -2.5537    0.0000 C   0  0  0  0  0  0  0  0  0  0  0  0
   -4.4231   -4.0537    0.0000 C   0  0  0  0  0  0  0  0  0  0  0  0
   -5.7221   -4.8037    0.0000 C   0  0  0  0  0  0  0  0  0  0  0  0
   -7.0211   -4.0537    0.0000 C   0  0  0  0  0  0  0  0  0  0  0  0
   -7.0211   -2.5537    0.0000 C   0  0  0  0  0  0  0  0  0  0  0  0
   -5.7221   -1.8037    0.0000 C   0  0  0  0  0  0  0  0  0  0  0  0
   -6.0340   -0.3364    0.0000 C   0  0  0  0  0  0  0  0  0  0  0  0
   -7.5257   -0.1796    0.0000 C   0  0  0  0  0  0  0  0  0  0  0  0
   -8.1358   -1.5500    0.0000 N   0  0  0  0  0  0  0  0  0  0  0  0
   -9.6031   -1.8618    0.0000 C   0  0  0  0  0  0  0  0  0  0  0  0
   -1.7537   -2.4138    0.0000 N   0  0  0  0  0  0  0  0  0  0  0  0
   -0.7500   -1.2990    0.0000 C   0  0  0  0  0  0  0  0  0  0  0  0
    0.8899   -3.9684    0.0000 C   0  0  0  0  0  0  0  0  0  0  0  0
    2.0046   -4.9721    0.0000 C   0  0  0  0  0  0  0  0  0  0  0  0
    1.8478   -6.4639    0.0000 C   0  0  0  0  0  0  0  0  0  0  0  0
    0.4775   -7.0740    0.0000 N   0  0  0  0  0  0  0  0  0  0  0  0
    0.1656   -8.5412    0.0000 C   0  0  0  0  0  0  0  0  0  0  0  0
   -1.3261   -8.6980    0.0000 C   0  0  0  0  0  0  0  0  0  0  0  0
   -1.9363   -7.3277    0.0000 C   0  0  0  0  0  0  0  0  0  0  0  0
   -3.4035   -7.0158    0.0000 O   0  0  0  0  0  0  0  0  0  0  0  0
   -0.8215   -6.3240    0.0000 C   0  0  0  0  0  0  0  0  0  0  0  0
  1  2  1  0
  2  3  2  0
  3  4  1  0
  4  5  1  0
  5  6  2  0
  6  7  1  0
  7  8  2  0
  8  9  1  0
  9 10  1  0
 10 11  1  0
 11 12  1  0
 12 13  2  0
 13 14  1  0
 14 15  2  0
 15 16  1  0
 16 17  2  0
 17 18  1  0
 18 19  2  0
 19 20  1  0
 20 21  1  0
 11 22  2  0
 22 23  1  0
  4 24  1  0
 24 25  2  0
 25 26  1  0
 26 27  1  0
 27 28  1  0
 28 29  1  0
 29 30  1  0
 30 31  1  1
 30 32  1  0
 25  2  1  0
 32 27  1  0
 23  5  1  0
 23  9  2  0
 17 12  1  0
 20 16  1  0
M  END
>  <Compound_ID>  (231) 
CHEMBL4791746

>  <Molecule Name>  (231) 
nan

>  <Molecular Weight>  (231) 
427.51

>  <AlogP>  (231) 
3.18

>  <Smiles>  (231) 
Cc1nn(-c2ccnc3[nH]c(-c4cccc5c4ccn5C)nc23)cc1CN1CC[C@@H](O)C1

>  <Standard Type>  (231) 
IC50

>  <Standard Relation>  (231) 
'='

>  <Standard Units>  (231) 
nM

>  <Standard Value>  (231) 
0.91

>  <Assay ChEMBL ID>  (231) 
CHEMBL4669219

>  <Assay Description>  (231) 
Inhibition of SYK (unknown origin)

>  <BAO Format ID>  (231) 
BAO_0000357

>  <BAO Label>  (231) 
single protein format

>  <Assay Organism>  (231) 
Homo sapiens

>  <Target ChEMBL ID>  (231) 
CHEMBL2599

>  <Target Name>  (231) 
Tyrosine-protein kinase SYK

>  <Target Organism>  (231) 
Homo sapiens

>  <Target Type>  (231) 
SINGLE PROTEIN

>  <Document ChEMBL ID>  (231) 
CHEMBL4665716

>  <Source Description>  (231) 
Scientific Literature

>  <Document Journal>  (231) 
Bioorg Med Chem Lett

>  <Document Year>  (231) 
2020.0

>  <Active>  (231) 
1.0

>  <bits>  (231) 
<rdkit.DataStructs.cDataStructs.ExplicitBitVect object at 0x00000193F340AAB0>

>  <Group>  (231) 
G2

$$$$

     RDKit          2D

 27 30  0  0  0  0  0  0  0  0999 V2000
    0.7040   -6.2002    0.0000 N   0  0  0  0  0  0  0  0  0  0  0  0
   -0.4107   -5.1965    0.0000 C   0  0  0  0  0  0  0  0  0  0  0  0
   -0.0988   -3.7293    0.0000 O   0  0  0  0  0  0  0  0  0  0  0  0
   -1.8373   -5.6601    0.0000 C   0  0  0  0  0  0  0  0  0  0  0  0
   -2.1491   -7.1273    0.0000 N   0  0  0  0  0  0  0  0  0  0  0  0
   -3.5757   -7.5908    0.0000 N   0  0  0  0  0  0  0  0  0  0  0  0
   -4.6904   -6.5871    0.0000 C   0  0  0  0  0  0  0  0  0  0  0  0
   -6.1170   -7.0506    0.0000 N   0  0  0  0  0  0  0  0  0  0  0  0
   -7.2317   -6.0469    0.0000 C   0  0  0  0  0  0  0  0  0  0  0  0
   -6.9199   -4.5797    0.0000 C   0  0  0  0  0  0  0  0  0  0  0  0
   -8.0346   -3.5760    0.0000 C   0  0  0  0  0  0  0  0  0  0  0  0
   -9.4612   -4.0396    0.0000 C   0  0  0  0  0  0  0  0  0  0  0  0
   -9.7730   -5.5068    0.0000 C   0  0  0  0  0  0  0  0  0  0  0  0
   -8.6583   -6.5105    0.0000 C   0  0  0  0  0  0  0  0  0  0  0  0
   -8.9702   -7.9777    0.0000 N   0  0  0  0  0  0  0  0  0  0  0  0
   -4.3786   -5.1199    0.0000 N   0  0  0  0  0  0  0  0  0  0  0  0
   -2.9520   -4.6564    0.0000 C   0  0  0  0  0  0  0  0  0  0  0  0
   -2.6401   -3.1891    0.0000 N   0  0  0  0  0  0  0  0  0  0  0  0
   -3.7548   -2.1855    0.0000 C   0  0  0  0  0  0  0  0  0  0  0  0
   -5.2220   -2.4973    0.0000 C   0  0  0  0  0  0  0  0  0  0  0  0
   -5.9720   -1.1983    0.0000 S   0  0  0  0  0  0  0  0  0  0  0  0
   -4.9684   -0.0836    0.0000 C   0  0  0  0  0  0  0  0  0  0  0  0
   -5.1251    1.4082    0.0000 C   0  0  0  0  0  0  0  0  0  0  0  0
   -3.9116    2.2899    0.0000 C   0  0  0  0  0  0  0  0  0  0  0  0
   -2.5413    1.6798    0.0000 C   0  0  0  0  0  0  0  0  0  0  0  0
   -2.3845    0.1880    0.0000 C   0  0  0  0  0  0  0  0  0  0  0  0
   -3.5980   -0.6937    0.0000 C   0  0  0  0  0  0  0  0  0  0  0  0
  1  2  1  0
  2  3  2  0
  2  4  1  0
  4  5  2  0
  5  6  1  0
  6  7  2  0
  7  8  1  0
  9  8  1  1
  9 10  1  0
 10 11  1  0
 11 12  1  0
 12 13  1  0
 13 14  1  0
 14 15  1  1
  7 16  1  0
 16 17  2  0
 17 18  1  0
 18 19  1  0
 19 20  2  0
 20 21  1  0
 21 22  1  0
 22 23  2  0
 23 24  1  0
 24 25  2  0
 25 26  1  0
 26 27  2  0
 17  4  1  0
 27 19  1  0
 14  9  1  0
 27 22  1  0
M  END
>  <Compound_ID>  (232) 
CHEMBL3942131

>  <Molecule Name>  (232) 
nan

>  <Molecular Weight>  (232) 
383.48

>  <AlogP>  (232) 
2.61

>  <Smiles>  (232) 
NC(=O)c1nnc(N[C@@H]2CCCC[C@@H]2N)nc1Nc1csc2ccccc12

>  <Standard Type>  (232) 
IC50

>  <Standard Relation>  (232) 
'='

>  <Standard Units>  (232) 
nM

>  <Standard Value>  (232) 
0.29

>  <Assay ChEMBL ID>  (232) 
CHEMBL3887308

>  <Assay Description>  (232) 
Syk Kinase Inhibition Assay: The in vitro inhibitory activity of the compound of the present invention against Syk kinase activity was assayed under the following conditions: the purified human Syk protein used in the test were purchased from Carna Biosciences, Inc. For the inhibitory activity assay on the compound, the compound of the present invention was first serially diluted with dimethyl sulfoxide (DMSO). Next, the purified human Syk protein FL-Peptide 22 (final concentration: 1 uM) (Caliper Life Sciences, Inc.), magnesium chloride (final concentration: 5 mM), ATP (final concentration: 30 uM), and each DMSO solution of the compound of the present invention (final concentration of DMSO: 5%) were added into a buffer solution for reaction (20 mM tris-HCl pH 7.5, 20 mM NaCl, 2.5 mM DTT, 0.02% Tween-20, 1% glycerol, 0.01 mM Pefabloc), and the mixture was then incubated at 25° C. for 30 minutes to perform kinase reaction. The kinase reaction was stopped by the addition thereto of EDTA.

>  <BAO Format ID>  (232) 
BAO_0000357

>  <BAO Label>  (232) 
single protein format

>  <Assay Organism>  (232) 
Homo sapiens

>  <Target ChEMBL ID>  (232) 
CHEMBL2599

>  <Target Name>  (232) 
Tyrosine-protein kinase SYK

>  <Target Organism>  (232) 
Homo sapiens

>  <Target Type>  (232) 
SINGLE PROTEIN

>  <Document ChEMBL ID>  (232) 
CHEMBL3886160

>  <Source Description>  (232) 
BindingDB Database

>  <Document Journal>  (232) 
nan

>  <Document Year>  (232) 
2015.0

>  <Active>  (232) 
1.0

>  <bits>  (232) 
<rdkit.DataStructs.cDataStructs.ExplicitBitVect object at 0x00000193F340AC00>

>  <Group>  (232) 
G2

$$$$

     RDKit          2D

 35 39  0  0  0  0  0  0  0  0999 V2000
   -2.0143    8.6263    0.0000 N   0  0  0  0  0  0  0  0  0  0  0  0
   -0.8995    7.6226    0.0000 C   0  0  0  0  0  0  0  0  0  0  0  0
    0.5271    8.0861    0.0000 C   0  0  0  0  0  0  0  0  0  0  0  0
    1.6418    7.0824    0.0000 N   0  0  0  0  0  0  0  0  0  0  0  0
    1.3299    5.6152    0.0000 C   0  0  0  0  0  0  0  0  0  0  0  0
   -0.0967    5.1517    0.0000 C   0  0  0  0  0  0  0  0  0  0  0  0
   -0.4086    3.6844    0.0000 C   0  0  0  0  0  0  0  0  0  0  0  0
    0.7062    2.6807    0.0000 C   0  0  0  0  0  0  0  0  0  0  0  0
    0.3943    1.2135    0.0000 N   0  0  0  0  0  0  0  0  0  0  0  0
    1.2760    0.0000    0.0000 C   0  0  0  0  0  0  0  0  0  0  0  0
    0.3943   -1.2135    0.0000 C   0  0  0  0  0  0  0  0  0  0  0  0
   -1.0323   -0.7500    0.0000 N   0  0  0  0  0  0  0  0  0  0  0  0
   -1.0323    0.7500    0.0000 C   0  0  0  0  0  0  0  0  0  0  0  0
   -2.1470    1.7537    0.0000 C   0  0  0  0  0  0  0  0  0  0  0  0
   -3.5736    1.2902    0.0000 N   0  0  0  0  0  0  0  0  0  0  0  0
   -4.6883    2.2939    0.0000 C   0  0  0  0  0  0  0  0  0  0  0  0
   -4.3764    3.7611    0.0000 C   0  0  0  0  0  0  0  0  0  0  0  0
   -5.4912    4.7648    0.0000 C   0  0  0  0  0  0  0  0  0  0  0  0
   -6.9177    4.3013    0.0000 C   0  0  0  0  0  0  0  0  0  0  0  0
   -8.0325    5.3050    0.0000 N   0  0  0  0  0  0  0  0  0  0  0  0
   -7.7206    6.7722    0.0000 C   0  0  0  0  0  0  0  0  0  0  0  0
   -8.8353    7.7759    0.0000 C   0  0  0  0  0  0  0  0  0  0  0  0
  -10.2619    7.3123    0.0000 N   0  0  0  0  0  0  0  0  0  0  0  0
  -11.3766    8.3160    0.0000 C   0  0  0  0  0  0  0  0  0  0  0  0
  -11.0647    9.7833    0.0000 C   0  0  0  0  0  0  0  0  0  0  0  0
  -12.1795   10.7870    0.0000 C   0  0  0  0  0  0  0  0  0  0  0  0
  -11.8676   12.2542    0.0000 O   0  0  0  0  0  0  0  0  0  0  0  0
   -9.6382   10.2468    0.0000 C   0  0  0  0  0  0  0  0  0  0  0  0
   -9.3263   11.7140    0.0000 O   0  0  0  0  0  0  0  0  0  0  0  0
  -10.5738    5.8451    0.0000 C   0  0  0  0  0  0  0  0  0  0  0  0
   -9.4590    4.8414    0.0000 C   0  0  0  0  0  0  0  0  0  0  0  0
   -7.2296    2.8340    0.0000 C   0  0  0  0  0  0  0  0  0  0  0  0
   -6.1149    1.8303    0.0000 C   0  0  0  0  0  0  0  0  0  0  0  0
   -1.8351    3.2209    0.0000 N   0  0  0  0  0  0  0  0  0  0  0  0
   -1.2114    6.1554    0.0000 N   0  0  0  0  0  0  0  0  0  0  0  0
  1  2  1  0
  2  3  2  0
  3  4  1  0
  4  5  2  0
  5  6  1  0
  6  7  1  0
  7  8  2  0
  8  9  1  0
  9 10  1  0
 10 11  2  0
 11 12  1  0
 12 13  2  0
 13 14  1  0
 14 15  1  0
 15 16  1  0
 16 17  2  0
 17 18  1  0
 18 19  2  0
 19 20  1  0
 20 21  1  0
 21 22  1  0
 22 23  1  0
 23 24  1  0
 24 25  1  0
 25 26  1  0
 26 27  1  0
 25 28  1  0
 28 29  1  0
 23 30  1  0
 30 31  1  0
 19 32  1  0
 32 33  2  0
 14 34  2  0
  6 35  2  0
 35  2  1  0
 34  7  1  0
 13  9  1  0
 33 16  1  0
 31 20  1  0
M  END
>  <Compound_ID>  (233) 
CHEMBL3973635

>  <Molecule Name>  (233) 
nan

>  <Molecular Weight>  (233) 
475.56

>  <AlogP>  (233) 
1.23

>  <Smiles>  (233) 
Nc1cncc(-c2cn3ccnc3c(Nc3ccc(N4CCN(CC(CO)CO)CC4)cc3)n2)n1

>  <Standard Type>  (233) 
IC50

>  <Standard Relation>  (233) 
'='

>  <Standard Units>  (233) 
nM

>  <Standard Value>  (233) 
14.5

>  <Assay ChEMBL ID>  (233) 
CHEMBL3888106

>  <Assay Description>  (233) 
High Throughput Syk Biochemical Assay: Syk activity was measured using KinEASE (Cisbio), a time-resolved fluorescence resonance energy transfer (TR-FRET) immunoassay. In this assay, Syk-catalyzes the phosphorylation of a XL665-labeled peptide substrate. Europium conjugated phospho-tyrosine specific antibody binds the resulting phosphorylated peptide. Formation of phosphorylated peptide is quantified by TR-FRET with Europium as the donor and XL665 the acceptor in a 2-step endpoint assay. In brief, test compounds serially diluted in DMSO were delivered into Corning white, low volume, non-binding 384 well plates using the Echo 550 acoustic liquid dispenser (Labcyte®). Syk enzyme and substrates were dispensed into assay plates using a Multi-Flo (Bio-Tek Instruments). The standard 5 μL reaction mixture contained 20 μM ATP, 1 μM biotinylated peptide, 0.015 nM of Syk in reaction buffer (50 mM Hepes, pH 7.0, 0.02% NaN3, 0.1% BSA, 0.1 mM Orthovanadate, 5 mM MgCl2, 1 mM DTT, 0.025% NP-40). After 30 minutes of incubati

>  <BAO Format ID>  (233) 
BAO_0000357

>  <BAO Label>  (233) 
single protein format

>  <Assay Organism>  (233) 
Homo sapiens

>  <Target ChEMBL ID>  (233) 
CHEMBL2599

>  <Target Name>  (233) 
Tyrosine-protein kinase SYK

>  <Target Organism>  (233) 
Homo sapiens

>  <Target Type>  (233) 
SINGLE PROTEIN

>  <Document ChEMBL ID>  (233) 
CHEMBL3886190

>  <Source Description>  (233) 
BindingDB Database

>  <Document Journal>  (233) 
nan

>  <Document Year>  (233) 
2016.0

>  <Active>  (233) 
1.0

>  <bits>  (233) 
<rdkit.DataStructs.cDataStructs.ExplicitBitVect object at 0x00000193F3409770>

>  <Group>  (233) 
G2

$$$$

     RDKit          2D

 29 31  0  0  0  0  0  0  0  0999 V2000
    3.0000   -7.7942    0.0000 O   0  0  0  0  0  0  0  0  0  0  0  0
    1.5000   -7.7942    0.0000 C   0  0  0  0  0  0  0  0  0  0  0  0
    0.7500   -6.4952    0.0000 N   0  0  0  0  0  0  0  0  0  0  0  0
    1.5000   -5.1962    0.0000 C   0  0  0  0  0  0  0  0  0  0  0  0
    0.7500   -3.8971    0.0000 C   0  0  0  0  0  0  0  0  0  0  0  0
    1.5000   -2.5981    0.0000 C   0  0  0  0  0  0  0  0  0  0  0  0
    0.7500   -1.2990    0.0000 C   0  0  0  0  0  0  0  0  0  0  0  0
    1.5000    0.0000    0.0000 C   0  0  0  0  0  0  0  0  0  0  0  0
    0.7500    1.2990    0.0000 C   0  0  0  0  0  0  0  0  0  0  0  0
   -0.7500    1.2990    0.0000 C   0  0  0  0  0  0  0  0  0  0  0  0
   -1.5000    0.0000    0.0000 C   0  0  0  0  0  0  0  0  0  0  0  0
   -0.7500   -1.2990    0.0000 C   0  0  0  0  0  0  0  0  0  0  0  0
    0.7500   -9.0933    0.0000 C   0  0  0  0  0  0  0  0  0  0  0  0
   -0.7500   -9.0933    0.0000 C   0  0  0  0  0  0  0  0  0  0  0  0
   -1.5000  -10.3923    0.0000 C   0  0  0  0  0  0  0  0  0  0  0  0
   -3.0000  -10.3923    0.0000 N   0  0  0  0  0  0  0  0  0  0  0  0
   -3.7500   -9.0933    0.0000 C   0  0  0  0  0  0  0  0  0  0  0  0
   -5.2500   -9.0933    0.0000 C   0  0  0  0  0  0  0  0  0  0  0  0
   -6.0000   -7.7942    0.0000 C   0  0  0  0  0  0  0  0  0  0  0  0
   -7.5000   -7.7942    0.0000 C   0  0  0  0  0  0  0  0  0  0  0  0
   -8.2500   -6.4952    0.0000 O   0  0  0  0  0  0  0  0  0  0  0  0
   -8.2500   -9.0933    0.0000 C   0  0  0  0  0  0  0  0  0  0  0  0
   -7.5000  -10.3923    0.0000 C   0  0  0  0  0  0  0  0  0  0  0  0
   -6.0000  -10.3923    0.0000 C   0  0  0  0  0  0  0  0  0  0  0  0
   -5.2500  -11.6913    0.0000 O   0  0  0  0  0  0  0  0  0  0  0  0
   -0.7500  -11.6913    0.0000 C   0  0  0  0  0  0  0  0  0  0  0  0
    0.7500  -11.6913    0.0000 C   0  0  0  0  0  0  0  0  0  0  0  0
    1.5000  -10.3923    0.0000 C   0  0  0  0  0  0  0  0  0  0  0  0
    3.0000  -10.3923    0.0000 O   0  0  0  0  0  0  0  0  0  0  0  0
  1  2  2  0
  2  3  1  0
  3  4  1  0
  4  5  1  0
  5  6  1  0
  6  7  1  0
  7  8  2  0
  8  9  1  0
  9 10  2  0
 10 11  1  0
 11 12  2  0
  2 13  1  0
 13 14  2  0
 14 15  1  0
 15 16  1  0
 16 17  1  0
 17 18  1  0
 18 19  2  0
 19 20  1  0
 20 21  1  0
 20 22  2  0
 22 23  1  0
 23 24  2  0
 24 25  1  0
 15 26  2  0
 26 27  1  0
 27 28  2  0
 28 29  1  0
 12  7  1  0
 28 13  1  0
 24 18  1  0
M  END
>  <Compound_ID>  (234) 
CHEMBL341946

>  <Molecule Name>  (234) 
nan

>  <Molecular Weight>  (234) 
392.46

>  <AlogP>  (234) 
3.78

>  <Smiles>  (234) 
O=C(NCCCc1ccccc1)c1cc(NCc2cc(O)ccc2O)ccc1O

>  <Standard Type>  (234) 
IC50

>  <Standard Relation>  (234) 
'='

>  <Standard Units>  (234) 
nM

>  <Standard Value>  (234) 
28000.0

>  <Assay ChEMBL ID>  (234) 
CHEMBL1022010

>  <Assay Description>  (234) 
Inhibition of recombinant Syk

>  <BAO Format ID>  (234) 
BAO_0000357

>  <BAO Label>  (234) 
single protein format

>  <Assay Organism>  (234) 
None

>  <Target ChEMBL ID>  (234) 
CHEMBL2599

>  <Target Name>  (234) 
Tyrosine-protein kinase SYK

>  <Target Organism>  (234) 
Homo sapiens

>  <Target Type>  (234) 
SINGLE PROTEIN

>  <Document ChEMBL ID>  (234) 
CHEMBL1138583

>  <Source Description>  (234) 
Scientific Literature

>  <Document Journal>  (234) 
Bioorg Med Chem Lett

>  <Document Year>  (234) 
2009.0

>  <Active>  (234) 
0.0

>  <bits>  (234) 
<rdkit.DataStructs.cDataStructs.ExplicitBitVect object at 0x00000193F34104A0>

>  <Group>  (234) 
G2

$$$$

     RDKit          2D

 14 14  0  0  0  0  0  0  0  0999 V2000
    3.7500   -1.2990    0.0000 C   0  0  0  0  0  0  0  0  0  0  0  0
    3.0000    0.0000    0.0000 O   0  0  0  0  0  0  0  0  0  0  0  0
    1.5000    0.0000    0.0000 C   0  0  0  0  0  0  0  0  0  0  0  0
    0.7500   -1.2990    0.0000 C   0  0  0  0  0  0  0  0  0  0  0  0
   -0.7500   -1.2990    0.0000 C   0  0  0  0  0  0  0  0  0  0  0  0
   -1.5000   -2.5981    0.0000 C   0  0  0  0  0  0  0  0  0  0  0  0
   -3.0000   -2.5981    0.0000 C   0  0  0  0  0  0  0  0  0  0  0  0
   -3.7500   -3.8971    0.0000 N   0  0  0  0  0  4  0  0  0  0  0  0
   -3.0000   -5.1962    0.0000 O   0  0  0  0  0  0  0  0  0  0  0  0
   -5.2500   -3.8971    0.0000 O   0  0  0  0  0  1  0  0  0  0  0  0
   -1.5000    0.0000    0.0000 C   0  0  0  0  0  0  0  0  0  0  0  0
   -0.7500    1.2990    0.0000 C   0  0  0  0  0  0  0  0  0  0  0  0
    0.7500    1.2990    0.0000 C   0  0  0  0  0  0  0  0  0  0  0  0
    1.5000    2.5981    0.0000 O   0  0  0  0  0  0  0  0  0  0  0  0
  1  2  1  0
  2  3  1  0
  3  4  2  0
  4  5  1  0
  5  6  1  0
  6  7  2  0
  7  8  1  0
  8  9  2  0
  8 10  1  0
  5 11  2  0
 11 12  1  0
 12 13  2  0
 13 14  1  0
 13  3  1  0
M  CHG  2   8   1  10  -1
M  END
>  <Compound_ID>  (235) 
CHEMBL309016

>  <Molecule Name>  (235) 
nan

>  <Molecular Weight>  (235) 
195.17

>  <AlogP>  (235) 
1.65

>  <Smiles>  (235) 
COc1cc(/C=C/[N+](=O)[O-])ccc1O

>  <Standard Type>  (235) 
IC50

>  <Standard Relation>  (235) 
'='

>  <Standard Units>  (235) 
nM

>  <Standard Value>  (235) 
76000.0

>  <Assay ChEMBL ID>  (235) 
CHEMBL1022010

>  <Assay Description>  (235) 
Inhibition of recombinant Syk

>  <BAO Format ID>  (235) 
BAO_0000357

>  <BAO Label>  (235) 
single protein format

>  <Assay Organism>  (235) 
None

>  <Target ChEMBL ID>  (235) 
CHEMBL2599

>  <Target Name>  (235) 
Tyrosine-protein kinase SYK

>  <Target Organism>  (235) 
Homo sapiens

>  <Target Type>  (235) 
SINGLE PROTEIN

>  <Document ChEMBL ID>  (235) 
CHEMBL1138583

>  <Source Description>  (235) 
Scientific Literature

>  <Document Journal>  (235) 
Bioorg Med Chem Lett

>  <Document Year>  (235) 
2009.0

>  <Active>  (235) 
0.0

>  <bits>  (235) 
<rdkit.DataStructs.cDataStructs.ExplicitBitVect object at 0x00000193F3412030>

>  <Group>  (235) 
G2

$$$$

     RDKit          2D

 30 34  0  0  0  0  0  0  0  0999 V2000
   -3.5736    1.2902    0.0000 O   0  0  0  0  0  0  0  0  0  0  0  0
   -2.1470    1.7537    0.0000 C   0  0  0  0  0  0  0  0  0  0  0  0
   -1.8351    3.2209    0.0000 N   0  0  0  0  0  0  0  0  0  0  0  0
   -0.4086    3.6844    0.0000 C   0  0  0  0  0  0  0  0  0  0  0  0
   -0.0967    5.1517    0.0000 C   0  0  0  0  0  0  0  0  0  0  0  0
    1.3299    5.6152    0.0000 S   0  0  0  0  0  0  0  0  0  0  0  0
    1.6418    7.0824    0.0000 C   0  0  0  0  0  0  0  0  0  0  0  0
    0.6381    8.1971    0.0000 N   0  0  0  0  0  0  0  0  0  0  0  0
    1.3881    9.4962    0.0000 N   0  0  0  0  0  0  0  0  0  0  0  0
    2.8553    9.1843    0.0000 C   0  0  0  0  0  0  0  0  0  0  0  0
    3.9700   10.1880    0.0000 N   0  0  0  0  0  0  0  0  0  0  0  0
    5.3966    9.7245    0.0000 C   0  0  0  0  0  0  0  0  0  0  0  0
    6.5113   10.7282    0.0000 C   0  0  0  0  0  0  0  0  0  0  0  0
    6.3545   12.2199    0.0000 C   0  0  0  0  0  0  0  0  0  0  0  0
    7.7248   12.8301    0.0000 C   0  0  0  0  0  0  0  0  0  0  0  0
    8.7285   11.7153    0.0000 C   0  0  0  0  0  0  0  0  0  0  0  0
    7.9785   10.4163    0.0000 O   0  0  0  0  0  0  0  0  0  0  0  0
    3.0121    7.6925    0.0000 S   0  0  0  0  0  0  0  0  0  0  0  0
    0.7062    2.6807    0.0000 N   0  0  0  0  0  0  0  0  0  0  0  0
    0.3943    1.2135    0.0000 C   0  0  0  0  0  0  0  0  0  0  0  0
    1.2760    0.0000    0.0000 S   0  0  0  0  0  0  0  0  0  0  0  0
    0.3943   -1.2135    0.0000 C   0  0  0  0  0  0  0  0  0  0  0  0
    0.8578   -2.6401    0.0000 C   0  0  0  0  0  0  0  0  0  0  0  0
   -0.1459   -3.7548    0.0000 C   0  0  0  0  0  0  0  0  0  0  0  0
    0.3177   -5.1814    0.0000 C   0  0  0  0  0  0  0  0  0  0  0  0
    1.7849   -5.4933    0.0000 C   0  0  0  0  0  0  0  0  0  0  0  0
    2.7886   -4.3786    0.0000 C   0  0  0  0  0  0  0  0  0  0  0  0
    2.3250   -2.9520    0.0000 C   0  0  0  0  0  0  0  0  0  0  0  0
   -1.0323   -0.7500    0.0000 C   0  0  0  0  0  0  0  0  0  0  0  0
   -1.0323    0.7500    0.0000 C   0  0  0  0  0  0  0  0  0  0  0  0
  1  2  2  0
  2  3  1  0
  3  4  1  0
  4  5  1  0
  5  6  1  0
  6  7  1  0
  7  8  2  0
  8  9  1  0
  9 10  2  0
 10 11  1  0
 11 12  1  0
 12 13  1  0
 13 14  1  0
 14 15  1  0
 15 16  1  0
 16 17  1  0
 10 18  1  0
  4 19  2  0
 19 20  1  0
 20 21  1  0
 21 22  1  0
 22 23  1  0
 23 24  2  0
 24 25  1  0
 25 26  2  0
 26 27  1  0
 27 28  2  0
 22 29  2  0
 29 30  1  0
 30  2  1  0
 18  7  1  0
 30 20  2  0
 17 13  1  0
 28 23  1  0
M  END
>  <Compound_ID>  (236) 
CHEMBL3125862

>  <Molecule Name>  (236) 
nan

>  <Molecular Weight>  (236) 
457.61

>  <AlogP>  (236) 
4.39

>  <Smiles>  (236) 
O=c1[nH]c(CSc2nnc(NCC3CCCO3)s2)nc2sc(-c3ccccc3)cc12

>  <Standard Type>  (236) 
IC50

>  <Standard Relation>  (236) 
'='

>  <Standard Units>  (236) 
nM

>  <Standard Value>  (236) 
22600.0

>  <Assay ChEMBL ID>  (236) 
CHEMBL3130288

>  <Assay Description>  (236) 
Inhibition of Syk (unknown origin) by radiometric assay

>  <BAO Format ID>  (236) 
BAO_0000357

>  <BAO Label>  (236) 
single protein format

>  <Assay Organism>  (236) 
Homo sapiens

>  <Target ChEMBL ID>  (236) 
CHEMBL2599

>  <Target Name>  (236) 
Tyrosine-protein kinase SYK

>  <Target Organism>  (236) 
Homo sapiens

>  <Target Type>  (236) 
SINGLE PROTEIN

>  <Document ChEMBL ID>  (236) 
CHEMBL3124748

>  <Source Description>  (236) 
Scientific Literature

>  <Document Journal>  (236) 
Bioorg Med Chem Lett

>  <Document Year>  (236) 
2014.0

>  <Active>  (236) 
0.0

>  <bits>  (236) 
<rdkit.DataStructs.cDataStructs.ExplicitBitVect object at 0x00000193F3410C10>

>  <Group>  (236) 
G2

$$$$

     RDKit          2D

 26 29  0  0  0  0  0  0  0  0999 V2000
   -0.2758   10.5570    0.0000 C   0  0  0  0  0  0  0  0  0  0  0  0
   -1.7024   10.0935    0.0000 O   0  0  0  0  0  0  0  0  0  0  0  0
   -2.0143    8.6263    0.0000 C   0  0  0  0  0  0  0  0  0  0  0  0
   -0.8995    7.6226    0.0000 C   0  0  0  0  0  0  0  0  0  0  0  0
   -1.2114    6.1554    0.0000 C   0  0  0  0  0  0  0  0  0  0  0  0
   -2.6380    5.6918    0.0000 C   0  0  0  0  0  0  0  0  0  0  0  0
   -2.9499    4.2246    0.0000 N   0  0  0  0  0  0  0  0  0  0  0  0
   -1.8351    3.2209    0.0000 C   0  0  0  0  0  0  0  0  0  0  0  0
   -0.4086    3.6844    0.0000 N   0  0  0  0  0  0  0  0  0  0  0  0
    0.7062    2.6807    0.0000 C   0  0  0  0  0  0  0  0  0  0  0  0
    2.1328    3.1443    0.0000 N   0  0  0  0  0  0  0  0  0  0  0  0
    3.2475    2.1406    0.0000 C   0  0  0  0  0  0  0  0  0  0  0  0
    4.6741    2.6041    0.0000 C   0  0  0  0  0  0  0  0  0  0  0  0
    4.9859    4.0713    0.0000 O   0  0  0  0  0  0  0  0  0  0  0  0
    3.8712    5.0750    0.0000 C   0  0  0  0  0  0  0  0  0  0  0  0
    2.4446    4.6115    0.0000 C   0  0  0  0  0  0  0  0  0  0  0  0
    0.3943    1.2135    0.0000 C   0  0  0  0  0  0  0  0  0  0  0  0
    1.2760    0.0000    0.0000 N   0  0  0  0  0  0  0  0  0  0  0  0
    0.3943   -1.2135    0.0000 C   0  0  0  0  0  0  0  0  0  0  0  0
   -1.0323   -0.7500    0.0000 N   0  0  0  0  0  0  0  0  0  0  0  0
   -1.0323    0.7500    0.0000 C   0  0  0  0  0  0  0  0  0  0  0  0
   -2.1470    1.7537    0.0000 N   0  0  0  0  0  0  0  0  0  0  0  0
   -3.7527    6.6955    0.0000 C   0  0  0  0  0  0  0  0  0  0  0  0
   -3.4408    8.1628    0.0000 C   0  0  0  0  0  0  0  0  0  0  0  0
   -4.5556    9.1664    0.0000 O   0  0  0  0  0  0  0  0  0  0  0  0
   -5.9821    8.7029    0.0000 C   0  0  0  0  0  0  0  0  0  0  0  0
  1  2  1  0
  2  3  1  0
  3  4  2  0
  4  5  1  0
  5  6  2  0
  6  7  1  0
  7  8  1  0
  8  9  2  0
  9 10  1  0
 10 11  1  0
 11 12  1  0
 12 13  1  0
 13 14  1  0
 14 15  1  0
 15 16  1  0
 10 17  2  0
 17 18  1  0
 18 19  2  0
 19 20  1  0
 20 21  1  0
 21 22  2  0
  6 23  1  0
 23 24  2  0
 24 25  1  0
 25 26  1  0
 24  3  1  0
 22  8  1  0
 16 11  1  0
 21 17  1  0
M  END
>  <Compound_ID>  (237) 
CHEMBL3115325

>  <Molecule Name>  (237) 
nan

>  <Molecular Weight>  (237) 
356.39

>  <AlogP>  (237) 
1.95

>  <Smiles>  (237) 
COc1ccc(Nc2nc(N3CCOCC3)c3nc[nH]c3n2)cc1OC

>  <Standard Type>  (237) 
IC50

>  <Standard Relation>  (237) 
'='

>  <Standard Units>  (237) 
nM

>  <Standard Value>  (237) 
12000.0

>  <Assay ChEMBL ID>  (237) 
CHEMBL3119790

>  <Assay Description>  (237) 
Inhibition of SYK (unknown origin) by radioactive ATP method

>  <BAO Format ID>  (237) 
BAO_0000357

>  <BAO Label>  (237) 
single protein format

>  <Assay Organism>  (237) 
Homo sapiens

>  <Target ChEMBL ID>  (237) 
CHEMBL2599

>  <Target Name>  (237) 
Tyrosine-protein kinase SYK

>  <Target Organism>  (237) 
Homo sapiens

>  <Target Type>  (237) 
SINGLE PROTEIN

>  <Document ChEMBL ID>  (237) 
CHEMBL3112544

>  <Source Description>  (237) 
Scientific Literature

>  <Document Journal>  (237) 
Bioorg Med Chem Lett

>  <Document Year>  (237) 
2013.0

>  <Active>  (237) 
0.0

>  <bits>  (237) 
<rdkit.DataStructs.cDataStructs.ExplicitBitVect object at 0x00000193F3410890>

>  <Group>  (237) 
G2

$$$$

     RDKit          2D

 18 19  0  0  0  0  0  0  0  0999 V2000
    3.0000    0.0000    0.0000 O   0  0  0  0  0  0  0  0  0  0  0  0
    1.5000    0.0000    0.0000 C   0  0  0  0  0  0  0  0  0  0  0  0
    0.7500   -1.2990    0.0000 C   0  0  0  0  0  0  0  0  0  0  0  0
   -0.7500   -1.2990    0.0000 C   0  0  0  0  0  0  0  0  0  0  0  0
   -1.5000   -2.5981    0.0000 O   0  0  0  0  0  0  0  0  0  0  0  0
   -1.5000    0.0000    0.0000 C   0  0  0  0  0  0  0  0  0  0  0  0
   -0.7500    1.2990    0.0000 C   0  0  0  0  0  0  0  0  0  0  0  0
   -1.5000    2.5981    0.0000 C   0  0  0  0  0  0  0  0  0  0  0  0
   -0.7500    3.8971    0.0000 C   0  0  0  0  0  0  0  0  0  0  0  0
   -1.5000    5.1962    0.0000 C   0  0  0  0  0  0  0  0  0  0  0  0
   -0.7500    6.4952    0.0000 C   0  0  0  0  0  0  0  0  0  0  0  0
   -1.5000    7.7942    0.0000 C   0  0  0  0  0  0  0  0  0  0  0  0
   -3.0000    7.7942    0.0000 C   0  0  0  0  0  0  0  0  0  0  0  0
   -3.7500    9.0933    0.0000 O   0  0  0  0  0  0  0  0  0  0  0  0
   -3.7500    6.4952    0.0000 C   0  0  0  0  0  0  0  0  0  0  0  0
   -5.2500    6.4952    0.0000 O   0  0  0  0  0  0  0  0  0  0  0  0
   -3.0000    5.1962    0.0000 C   0  0  0  0  0  0  0  0  0  0  0  0
    0.7500    1.2990    0.0000 C   0  0  0  0  0  0  0  0  0  0  0  0
  1  2  1  0
  2  3  2  0
  3  4  1  0
  4  5  1  0
  4  6  2  0
  6  7  1  0
  7  8  1  0
  8  9  2  0
  9 10  1  0
 10 11  2  0
 11 12  1  0
 12 13  2  0
 13 14  1  0
 13 15  1  0
 15 16  1  0
 15 17  2  0
  7 18  2  0
 18  2  1  0
 17 10  1  0
M  END
>  <Compound_ID>  (238) 
CHEMBL69863

>  <Molecule Name>  (238) 
PICEATANNOL

>  <Molecular Weight>  (238) 
244.25

>  <AlogP>  (238) 
2.68

>  <Smiles>  (238) 
Oc1cc(O)cc(/C=C/c2ccc(O)c(O)c2)c1

>  <Standard Type>  (238) 
IC50

>  <Standard Relation>  (238) 
'='

>  <Standard Units>  (238) 
nM

>  <Standard Value>  (238) 
10000.0

>  <Assay ChEMBL ID>  (238) 
CHEMBL2428110

>  <Assay Description>  (238) 
Inhibition of spleen tyrosine kinase (unknown origin)

>  <BAO Format ID>  (238) 
BAO_0000357

>  <BAO Label>  (238) 
single protein format

>  <Assay Organism>  (238) 
Homo sapiens

>  <Target ChEMBL ID>  (238) 
CHEMBL2599

>  <Target Name>  (238) 
Tyrosine-protein kinase SYK

>  <Target Organism>  (238) 
Homo sapiens

>  <Target Type>  (238) 
SINGLE PROTEIN

>  <Document ChEMBL ID>  (238) 
CHEMBL2424544

>  <Source Description>  (238) 
Scientific Literature

>  <Document Journal>  (238) 
Eur J Med Chem

>  <Document Year>  (238) 
2013.0

>  <Active>  (238) 
0.0

>  <bits>  (238) 
<rdkit.DataStructs.cDataStructs.ExplicitBitVect object at 0x00000193F3410DD0>

>  <Group>  (238) 
G2

$$$$

     RDKit          2D

 28 31  0  0  0  0  0  0  0  0999 V2000
  -12.3122    3.9144    0.0000 C   0  0  0  0  0  0  0  0  0  0  0  0
  -11.1975    2.9107    0.0000 O   0  0  0  0  0  0  0  0  0  0  0  0
   -9.7709    3.3742    0.0000 C   0  0  0  0  0  0  0  0  0  0  0  0
   -8.6562    2.3705    0.0000 C   0  0  0  0  0  0  0  0  0  0  0  0
   -7.2296    2.8340    0.0000 N   0  0  0  0  0  0  0  0  0  0  0  0
   -6.1149    1.8303    0.0000 C   0  0  0  0  0  0  0  0  0  0  0  0
   -6.4268    0.3631    0.0000 O   0  0  0  0  0  0  0  0  0  0  0  0
   -4.6883    2.2939    0.0000 C   0  0  0  0  0  0  0  0  0  0  0  0
   -3.5736    1.2902    0.0000 S   0  0  0  0  0  0  0  0  0  0  0  0
   -2.1470    1.7537    0.0000 C   0  0  0  0  0  0  0  0  0  0  0  0
   -1.8351    3.2209    0.0000 N   0  0  0  0  0  0  0  0  0  0  0  0
   -0.4086    3.6844    0.0000 C   0  0  0  0  0  0  0  0  0  0  0  0
   -0.0967    5.1517    0.0000 C   0  0  0  0  0  0  0  0  0  0  0  0
    1.3299    5.6152    0.0000 C   0  0  0  0  0  0  0  0  0  0  0  0
    1.6418    7.0824    0.0000 C   0  0  0  0  0  0  0  0  0  0  0  0
    0.5271    8.0861    0.0000 C   0  0  0  0  0  0  0  0  0  0  0  0
   -0.8995    7.6226    0.0000 C   0  0  0  0  0  0  0  0  0  0  0  0
   -1.2114    6.1554    0.0000 C   0  0  0  0  0  0  0  0  0  0  0  0
   -1.7812    8.8361    0.0000 O   0  0  0  0  0  0  0  0  0  0  0  0
   -0.8995   10.0496    0.0000 C   0  0  0  0  0  0  0  0  0  0  0  0
    0.5271    9.5861    0.0000 O   0  0  0  0  0  0  0  0  0  0  0  0
    0.7062    2.6807    0.0000 N   0  0  0  0  0  0  0  0  0  0  0  0
    0.3943    1.2135    0.0000 C   0  0  0  0  0  0  0  0  0  0  0  0
    1.2760    0.0000    0.0000 C   0  0  0  0  0  0  0  0  0  0  0  0
    0.3943   -1.2135    0.0000 C   0  0  0  0  0  0  0  0  0  0  0  0
    0.8578   -2.6401    0.0000 O   0  0  0  0  0  0  0  0  0  0  0  0
   -1.0323   -0.7500    0.0000 N   0  0  0  0  0  0  0  0  0  0  0  0
   -1.0323    0.7500    0.0000 N   0  0  0  0  0  0  0  0  0  0  0  0
  1  2  1  0
  2  3  1  0
  3  4  1  0
  4  5  1  0
  5  6  1  0
  6  7  2  0
  6  8  1  0
  8  9  1  0
  9 10  1  0
 10 11  2  0
 11 12  1  0
 12 13  1  0
 13 14  2  0
 14 15  1  0
 15 16  2  0
 16 17  1  0
 17 18  2  0
 17 19  1  0
 19 20  1  0
 20 21  1  0
 12 22  2  0
 22 23  1  0
 23 24  2  0
 24 25  1  0
 25 26  2  0
 25 27  1  0
 27 28  1  0
 28 10  1  0
 18 13  1  0
 28 23  1  0
 21 16  1  0
M  END
>  <Compound_ID>  (239) 
CHEMBL4070445

>  <Molecule Name>  (239) 
nan

>  <Molecular Weight>  (239) 
403.42

>  <AlogP>  (239) 
0.67

>  <Smiles>  (239) 
COCCNC(=O)CSc1nc(-c2ccc3c(c2)OCO3)nc2cc(=O)[nH]n12

>  <Standard Type>  (239) 
IC50

>  <Standard Relation>  (239) 
'='

>  <Standard Units>  (239) 
nM

>  <Standard Value>  (239) 
28000.0

>  <Assay ChEMBL ID>  (239) 
CHEMBL4010460

>  <Assay Description>  (239) 
Inhibition of SYK (unknown origin) using FAM-labeled peptide as substrate preincubated for 10 mins followed by substrate addition measured after 25 mins

>  <BAO Format ID>  (239) 
BAO_0000357

>  <BAO Label>  (239) 
single protein format

>  <Assay Organism>  (239) 
Homo sapiens

>  <Target ChEMBL ID>  (239) 
CHEMBL2599

>  <Target Name>  (239) 
Tyrosine-protein kinase SYK

>  <Target Organism>  (239) 
Homo sapiens

>  <Target Type>  (239) 
SINGLE PROTEIN

>  <Document ChEMBL ID>  (239) 
CHEMBL4007463

>  <Source Description>  (239) 
Scientific Literature

>  <Document Journal>  (239) 
Bioorg Med Chem Lett

>  <Document Year>  (239) 
2017.0

>  <Active>  (239) 
0.0

>  <bits>  (239) 
<rdkit.DataStructs.cDataStructs.ExplicitBitVect object at 0x00000193F3411070>

>  <Group>  (239) 
G2

$$$$

     RDKit          2D

 19 21  0  0  0  0  0  0  0  0999 V2000
   -5.2500   -3.8971    0.0000 C   0  0  0  0  0  0  0  0  0  0  0  0
   -3.7500   -3.8971    0.0000 C   0  0  0  0  0  0  0  0  0  0  0  0
   -3.0000   -2.5981    0.0000 O   0  0  0  0  0  0  0  0  0  0  0  0
   -1.5000   -2.5981    0.0000 C   0  0  0  0  0  0  0  0  0  0  0  0
   -0.7500   -3.8971    0.0000 N   0  0  0  0  0  0  0  0  0  0  0  0
    0.7500   -3.8971    0.0000 C   0  0  0  0  0  0  0  0  0  0  0  0
    1.5000   -2.5981    0.0000 C   0  0  0  0  0  0  0  0  0  0  0  0
    0.7500   -1.2990    0.0000 C   0  0  0  0  0  0  0  0  0  0  0  0
    1.5000    0.0000    0.0000 N   0  0  0  0  0  0  0  0  0  0  0  0
    0.7500    1.2990    0.0000 C   0  0  0  0  0  0  0  0  0  0  0  0
   -0.7500    1.2990    0.0000 C   0  0  0  0  0  0  0  0  0  0  0  0
   -1.5000    0.0000    0.0000 C   0  0  0  0  0  0  0  0  0  0  0  0
   -0.7500   -1.2990    0.0000 C   0  0  0  0  0  0  0  0  0  0  0  0
   -3.0000   -5.1962    0.0000 C   0  0  0  0  0  0  0  0  0  0  0  0
   -1.5082   -5.3529    0.0000 C   0  0  0  0  0  0  0  0  0  0  0  0
   -1.1963   -6.8202    0.0000 N   0  0  0  0  0  0  0  0  0  0  0  0
   -2.4954   -7.5702    0.0000 C   0  0  0  0  0  0  0  0  0  0  0  0
   -2.6522   -9.0619    0.0000 O   0  0  0  0  0  0  0  0  0  0  0  0
   -3.6101   -6.5665    0.0000 C   0  0  0  0  0  0  0  0  0  0  0  0
  2  1  1  1
  2  3  1  0
  3  4  1  0
  4  5  2  0
  5  6  1  0
  6  7  2  0
  7  8  1  0
  8  9  2  0
  9 10  1  0
 10 11  2  0
 11 12  1  0
 12 13  2  0
  2 14  1  0
 14 15  1  1
 15 16  1  0
 16 17  1  0
 17 18  2  0
 17 19  1  0
 13  4  1  0
 19 14  1  0
 13  8  1  0
M  END
>  <Compound_ID>  (240) 
CHEMBL3696059

>  <Molecule Name>  (240) 
nan

>  <Molecular Weight>  (240) 
257.29

>  <AlogP>  (240) 
1.53

>  <Smiles>  (240) 
C[C@@H](Oc1nccc2ncccc12)[C@H]1CNC(=O)C1

>  <Standard Type>  (240) 
IC50

>  <Standard Relation>  (240) 
'='

>  <Standard Units>  (240) 
nM

>  <Standard Value>  (240) 
2156000.0

>  <Assay ChEMBL ID>  (240) 
CHEMBL3705989

>  <Assay Description>  (240) 
Kinase Glo Luminescence Kinase Assay: Recombinant human Syk (amino acids 342-635) was expressed as a fusion protein with an N-terminal GST tag, affinity-purified and deep-frozen at a concentration of approx. 50 - 100 uM in test buffer (25 mM HEPES pH7.5; 25 mM MgCI2;5 mM MnCI2; 50 mM KCI; 0.2% BSA; 0.01 % CHAPS; 100 uM Na3V04; 0.5 mM DTT) and 10% glycerol at -80 C until use.The catalytic activity of the GST-Syk kinase fusion protein was determined using the Kinase Glo Luminescence Kinase test (Promega; V6712). In this homogeneous test the amount of ATP remaining after the kinase reaction is quantified by a luciferin-luciferase reaction using luminescence. The luminescence signal obtained correlates with the amount of ATP still present and thus correlates inversely with the activity of the protein kinase. Method:The test compounds were dissolved in 100 % DMSO at a concentration of 10 mM and diluted in DMSO to a concentration of 1 mM.

>  <BAO Format ID>  (240) 
BAO_0000357

>  <BAO Label>  (240) 
single protein format

>  <Assay Organism>  (240) 
Homo sapiens

>  <Target ChEMBL ID>  (240) 
CHEMBL2599

>  <Target Name>  (240) 
Tyrosine-protein kinase SYK

>  <Target Organism>  (240) 
Homo sapiens

>  <Target Type>  (240) 
SINGLE PROTEIN

>  <Document ChEMBL ID>  (240) 
CHEMBL3639308

>  <Source Description>  (240) 
BindingDB Database

>  <Document Journal>  (240) 
nan

>  <Document Year>  (240) 
2015.0

>  <Active>  (240) 
0.0

>  <bits>  (240) 
<rdkit.DataStructs.cDataStructs.ExplicitBitVect object at 0x00000193F34105F0>

>  <Group>  (240) 
G2

$$$$

     RDKit          2D

 28 31  0  0  0  0  0  0  0  0999 V2000
    3.0000  -10.3923    0.0000 C   0  0  0  0  0  0  0  0  0  0  0  0
    3.7500   -9.0933    0.0000 N   0  0  0  0  0  0  0  0  0  0  0  0
    5.2500   -9.0933    0.0000 C   0  0  0  0  0  0  0  0  0  0  0  0
    3.0000   -7.7942    0.0000 C   0  0  0  0  0  0  0  0  0  0  0  0
    1.5000   -7.7942    0.0000 C   0  0  0  0  0  0  0  0  0  0  0  0
    0.7500   -6.4952    0.0000 C   0  0  0  0  0  0  0  0  0  0  0  0
    1.5000   -5.1962    0.0000 C   0  0  0  0  0  0  0  0  0  0  0  0
    0.7500   -3.8971    0.0000 C   0  0  0  0  0  0  0  0  0  0  0  0
    1.5000   -2.5981    0.0000 C   0  0  0  0  0  0  0  0  0  0  0  0
    0.7500   -1.2990    0.0000 C   0  0  0  0  0  0  0  0  0  0  0  0
    1.5000    0.0000    0.0000 N   0  0  0  0  0  0  0  0  0  0  0  0
    0.7500    1.2990    0.0000 C   0  0  0  0  0  0  0  0  0  0  0  0
   -0.7500    1.2990    0.0000 C   0  0  0  0  0  0  0  0  0  0  0  0
   -1.5000    0.0000    0.0000 C   0  0  0  0  0  0  0  0  0  0  0  0
   -0.7500   -1.2990    0.0000 C   0  0  0  0  0  0  0  0  0  0  0  0
   -1.5000   -2.5981    0.0000 C   0  0  0  0  0  0  0  0  0  0  0  0
   -3.0000   -2.5981    0.0000 N   0  0  0  0  0  0  0  0  0  0  0  0
   -3.7500   -3.8971    0.0000 C   0  0  0  0  0  0  0  0  0  0  0  0
   -5.2500   -3.8971    0.0000 C   0  0  0  0  0  0  0  0  0  0  0  0
   -6.0000   -2.5981    0.0000 C   0  0  0  0  0  0  0  0  0  0  0  0
   -7.5000   -2.5981    0.0000 C   0  0  0  0  0  0  0  0  0  0  0  0
   -8.2500   -3.8971    0.0000 C   0  0  0  0  0  0  0  0  0  0  0  0
   -9.7500   -3.8971    0.0000 N   0  0  0  0  0  0  0  0  0  0  0  0
   -7.5000   -5.1962    0.0000 C   0  0  0  0  0  0  0  0  0  0  0  0
   -6.0000   -5.1962    0.0000 C   0  0  0  0  0  0  0  0  0  0  0  0
   -0.7500   -3.8971    0.0000 N   0  0  0  0  0  0  0  0  0  0  0  0
    3.0000   -5.1962    0.0000 C   0  0  0  0  0  0  0  0  0  0  0  0
    3.7500   -6.4952    0.0000 C   0  0  0  0  0  0  0  0  0  0  0  0
  1  2  1  0
  2  3  1  0
  2  4  1  0
  4  5  2  0
  5  6  1  0
  6  7  2  0
  7  8  1  0
  8  9  2  0
  9 10  1  0
 10 11  2  0
 11 12  1  0
 12 13  2  0
 13 14  1  0
 14 15  2  0
 15 16  1  0
 16 17  1  0
 17 18  1  0
 18 19  1  0
 19 20  2  0
 20 21  1  0
 21 22  2  0
 22 23  1  0
 22 24  1  0
 24 25  2  0
 16 26  2  0
  7 27  1  0
 27 28  2  0
 28  4  1  0
 26  8  1  0
 15 10  1  0
 25 19  1  0
M  END
>  <Compound_ID>  (241) 
CHEMBL283181

>  <Molecule Name>  (241) 
nan

>  <Molecular Weight>  (241) 
369.47

>  <AlogP>  (241) 
4.56

>  <Smiles>  (241) 
CN(C)c1ccc(-c2cc3ncccc3c(NCc3ccc(N)cc3)n2)cc1

>  <Standard Type>  (241) 
IC50

>  <Standard Relation>  (241) 
'='

>  <Standard Units>  (241) 
nM

>  <Standard Value>  (241) 
13000.0

>  <Assay ChEMBL ID>  (241) 
CHEMBL1022010

>  <Assay Description>  (241) 
Inhibition of recombinant Syk

>  <BAO Format ID>  (241) 
BAO_0000357

>  <BAO Label>  (241) 
single protein format

>  <Assay Organism>  (241) 
None

>  <Target ChEMBL ID>  (241) 
CHEMBL2599

>  <Target Name>  (241) 
Tyrosine-protein kinase SYK

>  <Target Organism>  (241) 
Homo sapiens

>  <Target Type>  (241) 
SINGLE PROTEIN

>  <Document ChEMBL ID>  (241) 
CHEMBL1138583

>  <Source Description>  (241) 
Scientific Literature

>  <Document Journal>  (241) 
Bioorg Med Chem Lett

>  <Document Year>  (241) 
2009.0

>  <Active>  (241) 
0.0

>  <bits>  (241) 
<rdkit.DataStructs.cDataStructs.ExplicitBitVect object at 0x00000193F3412960>

>  <Group>  (241) 
G2

$$$$

     RDKit          2D

 20 23  0  0  0  0  0  0  0  0999 V2000
   -5.5085    0.2283    0.0000 C   0  0  0  0  0  0  0  0  0  0  0  0
   -4.0819    0.6918    0.0000 O   0  0  0  0  0  0  0  0  0  0  0  0
   -2.9672   -0.3119    0.0000 N   0  0  0  0  0  0  0  0  0  0  0  0
   -3.1240   -1.8037    0.0000 C   0  0  0  0  0  0  0  0  0  0  0  0
   -1.7537   -2.4138    0.0000 C   0  0  0  0  0  0  0  0  0  0  0  0
   -0.7500   -1.2990    0.0000 C   0  0  0  0  0  0  0  0  0  0  0  0
    0.7500   -1.2990    0.0000 C   0  0  0  0  0  0  0  0  0  0  0  0
    1.5000    0.0000    0.0000 C   0  0  0  0  0  0  0  0  0  0  0  0
    0.7500    1.2990    0.0000 C   0  0  0  0  0  0  0  0  0  0  0  0
   -0.7500    1.2990    0.0000 C   0  0  0  0  0  0  0  0  0  0  0  0
   -1.5000    0.0000    0.0000 C   0  0  0  0  0  0  0  0  0  0  0  0
    1.2299   -2.7273    0.0000 C   0  0  0  0  0  0  0  0  0  0  0  0
    2.7217   -2.8841    0.0000 C   0  0  0  0  0  0  0  0  0  0  0  0
    3.3318   -4.2545    0.0000 C   0  0  0  0  0  0  0  0  0  0  0  0
    4.8235   -4.4112    0.0000 C   0  0  0  0  0  0  0  0  0  0  0  0
    2.4501   -5.4680    0.0000 C   0  0  0  0  0  0  0  0  0  0  0  0
    0.9583   -5.3112    0.0000 N   0  0  0  0  0  0  0  0  0  0  0  0
    0.0766   -6.5247    0.0000 C   0  0  0  0  0  0  0  0  0  0  0  0
    0.3482   -3.9409    0.0000 C   0  0  0  0  0  0  0  0  0  0  0  0
   -1.1436   -3.7841    0.0000 C   0  0  0  0  0  0  0  0  0  0  0  0
  1  2  1  0
  2  3  1  0
  3  4  1  0
  4  5  2  0
  5  6  1  0
  6  7  2  0
  7  8  1  0
  8  9  2  0
  9 10  1  0
 10 11  2  0
  7 12  1  0
 12 13  1  6
 13 14  2  0
 14 15  1  0
 14 16  1  0
 16 17  1  0
 17 18  1  0
 17 19  1  0
 19 20  1  6
 11  3  1  0
 19 12  1  0
 20  5  1  0
 11  6  1  0
M  END
>  <Compound_ID>  (242) 
CHEMBL435240

>  <Molecule Name>  (242) 
nan

>  <Molecular Weight>  (242) 
268.36

>  <AlogP>  (242) 
2.60

>  <Smiles>  (242) 
COn1cc2c3c(cccc31)[C@@H]1C=C(C)CN(C)[C@@H]1C2

>  <Standard Type>  (242) 
IC50

>  <Standard Relation>  (242) 
'='

>  <Standard Units>  (242) 
nM

>  <Standard Value>  (242) 
285000.0

>  <Assay ChEMBL ID>  (242) 
CHEMBL843193

>  <Assay Description>  (242) 
Inhibition of p72 syk autophosphorylation

>  <BAO Format ID>  (242) 
BAO_0000357

>  <BAO Label>  (242) 
single protein format

>  <Assay Organism>  (242) 
None

>  <Target ChEMBL ID>  (242) 
CHEMBL2599

>  <Target Name>  (242) 
Tyrosine-protein kinase SYK

>  <Target Organism>  (242) 
Homo sapiens

>  <Target Type>  (242) 
SINGLE PROTEIN

>  <Document ChEMBL ID>  (242) 
CHEMBL1131644

>  <Source Description>  (242) 
Scientific Literature

>  <Document Journal>  (242) 
Bioorg Med Chem Lett

>  <Document Year>  (242) 
1998.0

>  <Active>  (242) 
0.0

>  <bits>  (242) 
<rdkit.DataStructs.cDataStructs.ExplicitBitVect object at 0x00000193F3410820>

>  <Group>  (242) 
G2

$$$$

     RDKit          2D

 27 30  0  0  0  0  0  0  0  0999 V2000
   -4.0978   -7.7629    0.0000 C   0  0  0  0  0  0  0  0  0  0  0  0
   -4.2546   -6.2711    0.0000 C   0  0  0  0  0  0  0  0  0  0  0  0
   -3.1399   -5.2674    0.0000 C   0  0  0  0  0  0  0  0  0  0  0  0
   -3.7500   -3.8971    0.0000 C   0  0  0  0  0  0  0  0  0  0  0  0
   -3.0000   -2.5981    0.0000 N   0  0  0  0  0  0  0  0  0  0  0  0
   -1.5000   -2.5981    0.0000 C   0  0  0  0  0  0  0  0  0  0  0  0
   -0.7500   -3.8971    0.0000 N   0  0  0  0  0  0  0  0  0  0  0  0
    0.7500   -3.8971    0.0000 N   0  0  0  0  0  0  0  0  0  0  0  0
    1.5000   -5.1962    0.0000 C   0  0  0  0  0  0  0  0  0  0  0  0
    0.7500   -6.4952    0.0000 C   0  0  0  0  0  0  0  0  0  0  0  0
   -0.7500   -6.4952    0.0000 C   0  0  0  0  0  0  0  0  0  0  0  0
   -1.5000   -7.7942    0.0000 C   0  0  0  0  0  0  0  0  0  0  0  0
   -3.0000   -7.7942    0.0000 F   0  0  0  0  0  0  0  0  0  0  0  0
   -0.7500   -9.0933    0.0000 C   0  0  0  0  0  0  0  0  0  0  0  0
    0.7500   -9.0933    0.0000 C   0  0  0  0  0  0  0  0  0  0  0  0
    1.5000   -7.7942    0.0000 C   0  0  0  0  0  0  0  0  0  0  0  0
    3.0000   -7.7942    0.0000 F   0  0  0  0  0  0  0  0  0  0  0  0
    1.5000   -2.5981    0.0000 C   0  0  0  0  0  0  0  0  0  0  0  0
    3.0000   -2.5981    0.0000 O   0  0  0  0  0  0  0  0  0  0  0  0
    0.7500   -1.2990    0.0000 C   0  0  0  0  0  0  0  0  0  0  0  0
    1.5000    0.0000    0.0000 C   0  0  0  0  0  0  0  0  0  0  0  0
    0.7500    1.2990    0.0000 C   0  0  0  0  0  0  0  0  0  0  0  0
   -0.7500    1.2990    0.0000 C   0  0  0  0  0  0  0  0  0  0  0  0
   -1.5000    0.0000    0.0000 C   0  0  0  0  0  0  0  0  0  0  0  0
   -0.7500   -1.2990    0.0000 C   0  0  0  0  0  0  0  0  0  0  0  0
   -5.2418   -4.0539    0.0000 N   0  0  0  0  0  0  0  0  0  0  0  0
   -5.5537   -5.5211    0.0000 N   0  0  0  0  0  0  0  0  0  0  0  0
  1  2  1  0
  2  3  2  0
  3  4  1  0
  4  5  1  0
  5  6  1  0
  6  7  2  0
  7  8  1  0
  8  9  1  0
  9 10  1  0
 10 11  2  0
 11 12  1  0
 12 13  1  0
 12 14  2  0
 14 15  1  0
 15 16  2  0
 16 17  1  0
  8 18  1  0
 18 19  2  0
 18 20  1  0
 20 21  2  0
 21 22  1  0
 22 23  2  0
 23 24  1  0
 24 25  2  0
  4 26  2  0
 26 27  1  0
 27  2  1  0
 25  6  1  0
 16 10  1  0
 25 20  1  0
M  END
>  <Compound_ID>  (243) 
CHEMBL516231

>  <Molecule Name>  (243) 
nan

>  <Molecular Weight>  (243) 
367.36

>  <AlogP>  (243) 
3.50

>  <Smiles>  (243) 
Cc1cc(Nc2nn(Cc3cc(F)ccc3F)c(=O)c3ccccc23)n[nH]1

>  <Standard Type>  (243) 
IC50

>  <Standard Relation>  (243) 
'='

>  <Standard Units>  (243) 
nM

>  <Standard Value>  (243) 
22900.0

>  <Assay ChEMBL ID>  (243) 
CHEMBL1022010

>  <Assay Description>  (243) 
Inhibition of recombinant Syk

>  <BAO Format ID>  (243) 
BAO_0000357

>  <BAO Label>  (243) 
single protein format

>  <Assay Organism>  (243) 
None

>  <Target ChEMBL ID>  (243) 
CHEMBL2599

>  <Target Name>  (243) 
Tyrosine-protein kinase SYK

>  <Target Organism>  (243) 
Homo sapiens

>  <Target Type>  (243) 
SINGLE PROTEIN

>  <Document ChEMBL ID>  (243) 
CHEMBL1138583

>  <Source Description>  (243) 
Scientific Literature

>  <Document Journal>  (243) 
Bioorg Med Chem Lett

>  <Document Year>  (243) 
2009.0

>  <Active>  (243) 
0.0

>  <bits>  (243) 
<rdkit.DataStructs.cDataStructs.ExplicitBitVect object at 0x00000193F3412A40>

>  <Group>  (243) 
G2

$$$$

     RDKit          2D

 43 46  0  0  0  0  0  0  0  0999 V2000
    3.7500   -1.2990    0.0000 C   0  0  0  0  0  0  0  0  0  0  0  0
    3.0000    0.0000    0.0000 N   0  0  0  0  0  0  0  0  0  0  0  0
    1.5000    0.0000    0.0000 C   0  0  0  0  0  0  0  0  0  0  0  0
    0.7500   -1.2990    0.0000 N   0  0  0  0  0  0  0  0  0  0  0  0
   -0.7500   -1.2990    0.0000 C   0  0  0  0  0  0  0  0  0  0  0  0
   -1.5000    0.0000    0.0000 N   0  0  0  0  0  0  0  0  0  0  0  0
   -0.7500    1.2990    0.0000 C   0  0  0  0  0  0  0  0  0  0  0  0
   -1.5000    2.5981    0.0000 C   0  0  0  0  0  0  0  0  0  0  0  0
   -0.7500    3.8971    0.0000 C   0  0  0  0  0  0  0  0  0  0  0  0
   -1.5000    5.1962    0.0000 C   0  0  0  0  0  0  0  0  0  0  0  0
   -3.0000    5.1962    0.0000 C   0  0  0  0  0  0  0  0  0  0  0  0
   -3.7500    3.8971    0.0000 N   0  0  0  0  0  0  0  0  0  0  0  0
   -3.0000    2.5981    0.0000 C   0  0  0  0  0  0  0  0  0  0  0  0
   -3.7500    1.2990    0.0000 O   0  0  0  0  0  0  0  0  0  0  0  0
   -5.2500    1.2990    0.0000 C   0  0  0  0  0  0  0  0  0  0  0  0
   -6.0000    2.5981    0.0000 C   0  0  0  0  0  0  0  0  0  0  0  0
   -7.5000    2.5981    0.0000 C   0  0  0  0  0  0  0  0  0  0  0  0
   -8.2500    1.2990    0.0000 C   0  0  0  0  0  0  0  0  0  0  0  0
   -9.7500    1.2990    0.0000 F   0  0  0  0  0  0  0  0  0  0  0  0
   -7.5000    0.0000    0.0000 C   0  0  0  0  0  0  0  0  0  0  0  0
   -8.2500   -1.2990    0.0000 C   0  0  0  0  0  0  0  0  0  0  0  0
   -9.7500   -1.2990    0.0000 O   0  0  0  0  0  0  0  0  0  0  0  0
   -7.5000   -2.5981    0.0000 N   0  0  0  0  0  0  0  0  0  0  0  0
   -8.2500   -3.8971    0.0000 C   0  0  0  0  0  0  0  0  0  0  0  0
   -9.7500   -3.8971    0.0000 C   0  0  0  0  0  0  0  0  0  0  0  0
  -10.5000   -5.1962    0.0000 C   0  0  0  0  0  0  0  0  0  0  0  0
  -12.0000   -5.1962    0.0000 C   0  0  0  0  0  0  0  0  0  0  0  0
  -13.5000   -5.1962    0.0000 F   0  0  0  0  0  0  0  0  0  0  0  0
  -12.0000   -3.6962    0.0000 F   0  0  0  0  0  0  0  0  0  0  0  0
  -12.0000   -6.6962    0.0000 F   0  0  0  0  0  0  0  0  0  0  0  0
   -9.7500   -6.4952    0.0000 C   0  0  0  0  0  0  0  0  0  0  0  0
   -8.2500   -6.4952    0.0000 C   0  0  0  0  0  0  0  0  0  0  0  0
   -7.5000   -5.1962    0.0000 C   0  0  0  0  0  0  0  0  0  0  0  0
   -6.0000   -5.1962    0.0000 N   0  0  0  0  0  0  0  0  0  0  0  0
   -5.2500   -6.4952    0.0000 C   0  0  0  0  0  0  0  0  0  0  0  0
   -5.2500   -3.8971    0.0000 C   0  0  0  0  0  0  0  0  0  0  0  0
   -3.7500   -3.8971    0.0000 C   0  0  0  0  0  0  0  0  0  0  0  0
   -3.0000   -2.5981    0.0000 C   0  0  0  0  0  0  0  0  0  0  0  0
   -3.7500   -1.2990    0.0000 N   0  0  0  0  0  0  0  0  0  0  0  0
   -3.0000   -0.0000    0.0000 C   0  0  0  0  0  0  0  0  0  0  0  0
   -5.2500   -1.2990    0.0000 C   0  0  0  0  0  0  0  0  0  0  0  0
   -6.0000    0.0000    0.0000 C   0  0  0  0  0  0  0  0  0  0  0  0
    0.7500    1.2990    0.0000 N   0  0  0  0  0  0  0  0  0  0  0  0
  1  2  1  0
  2  3  1  0
  3  4  2  0
  4  5  1  0
  5  6  2  0
  6  7  1  0
  7  8  1  0
  8  9  2  0
  9 10  1  0
 10 11  2  0
 11 12  1  0
 12 13  2  0
 13 14  1  0
 14 15  1  0
 15 16  2  0
 16 17  1  0
 17 18  2  0
 18 19  1  0
 18 20  1  0
 20 21  1  0
 21 22  2  0
 21 23  1  0
 23 24  1  0
 24 25  2  0
 25 26  1  0
 26 27  1  0
 27 28  1  0
 27 29  1  0
 27 30  1  0
 26 31  2  0
 31 32  1  0
 32 33  2  0
 33 34  1  0
 34 35  1  0
 34 36  1  0
 36 37  1  0
 37 38  1  0
 38 39  1  0
 39 40  1  0
 39 41  1  0
 20 42  2  0
  7 43  2  0
 43  3  1  0
 13  8  1  0
 42 15  1  0
 33 24  1  0
M  END
>  <Compound_ID>  (244) 
CHEMBL373882

>  <Molecule Name>  (244) 
nan

>  <Molecular Weight>  (244) 
598.61

>  <AlogP>  (244) 
5.57

>  <Smiles>  (244) 
CNc1ncnc(-c2cccnc2Oc2ccc(F)c(C(=O)Nc3cc(C(F)(F)F)ccc3N(C)CCCN(C)C)c2)n1

>  <Standard Type>  (244) 
IC50

>  <Standard Relation>  (244) 
'='

>  <Standard Units>  (244) 
nM

>  <Standard Value>  (244) 
25000.0

>  <Assay ChEMBL ID>  (244) 
CHEMBL908516

>  <Assay Description>  (244) 
Inhibition of SYK

>  <BAO Format ID>  (244) 
BAO_0000357

>  <BAO Label>  (244) 
single protein format

>  <Assay Organism>  (244) 
Homo sapiens

>  <Target ChEMBL ID>  (244) 
CHEMBL2599

>  <Target Name>  (244) 
Tyrosine-protein kinase SYK

>  <Target Organism>  (244) 
Homo sapiens

>  <Target Type>  (244) 
SINGLE PROTEIN

>  <Document ChEMBL ID>  (244) 
CHEMBL1141380

>  <Source Description>  (244) 
Scientific Literature

>  <Document Journal>  (244) 
J Med Chem

>  <Document Year>  (244) 
2007.0

>  <Active>  (244) 
0.0

>  <bits>  (244) 
<rdkit.DataStructs.cDataStructs.ExplicitBitVect object at 0x00000193F3411310>

>  <Group>  (244) 
G2

$$$$

     RDKit          2D

 51 51  0  0  0  0  0  0  0  0999 V2000
   -0.7500   -6.4952    0.0000 C   0  0  0  0  0  0  0  0  0  0  0  0
    0.7500   -6.4952    0.0000 C   0  0  0  0  0  0  0  0  0  0  0  0
    1.5000   -7.7942    0.0000 O   0  0  0  0  0  0  0  0  0  0  0  0
    1.5000   -5.1962    0.0000 N   0  0  0  0  0  0  0  0  0  0  0  0
    3.0000   -5.1962    0.0000 C   0  0  0  0  0  0  0  0  0  0  0  0
    3.7500   -3.8971    0.0000 C   0  0  0  0  0  0  0  0  0  0  0  0
    5.2500   -3.8971    0.0000 O   0  0  0  0  0  0  0  0  0  0  0  0
    3.0000   -2.5981    0.0000 N   0  0  0  0  0  0  0  0  0  0  0  0
    3.7500   -1.2990    0.0000 C   0  0  0  0  0  0  0  0  0  0  0  0
    3.0000    0.0000    0.0000 C   0  0  0  0  0  0  0  0  0  0  0  0
    1.5000    0.0000    0.0000 C   0  0  0  0  0  0  0  0  0  0  0  0
    0.7500   -1.2990    0.0000 C   0  0  0  0  0  0  0  0  0  0  0  0
   -0.7500   -1.2990    0.0000 C   0  0  0  0  0  0  0  0  0  0  0  0
   -1.5000    0.0000    0.0000 C   0  0  0  0  0  0  0  0  0  0  0  0
   -3.0000    0.0000    0.0000 O   0  0  0  0  0  0  0  0  0  0  0  0
   -3.7500    1.2990    0.0000 P   0  0  0  0  0  0  0  0  0  0  0  0
   -5.0490    0.5490    0.0000 O   0  0  0  0  0  0  0  0  0  0  0  0
   -2.4510    2.0490    0.0000 O   0  0  0  0  0  0  0  0  0  0  0  0
   -4.5000    2.5981    0.0000 O   0  0  0  0  0  0  0  0  0  0  0  0
   -0.7500    1.2990    0.0000 C   0  0  0  0  0  0  0  0  0  0  0  0
    0.7500    1.2990    0.0000 C   0  0  0  0  0  0  0  0  0  0  0  0
    5.2500   -1.2990    0.0000 C   0  0  0  0  0  0  0  0  0  0  0  0
    6.0000    0.0000    0.0000 O   0  0  0  0  0  0  0  0  0  0  0  0
    6.0000   -2.5981    0.0000 N   0  0  0  0  0  0  0  0  0  0  0  0
    7.5000   -2.5981    0.0000 C   0  0  0  0  0  0  0  0  0  0  0  0
    8.2500   -3.8971    0.0000 C   0  0  0  0  0  0  0  0  0  0  0  0
    9.7500   -3.8971    0.0000 C   0  0  0  0  0  0  0  0  0  0  0  0
   10.5000   -5.1962    0.0000 C   0  0  0  0  0  0  0  0  0  0  0  0
    9.7500   -6.4952    0.0000 O   0  0  0  0  0  0  0  0  0  0  0  0
   12.0000   -5.1962    0.0000 O   0  0  0  0  0  0  0  0  0  0  0  0
    8.2500   -1.2990    0.0000 C   0  0  0  0  0  0  0  0  0  0  0  0
    7.5000    0.0000    0.0000 O   0  0  0  0  0  0  0  0  0  0  0  0
    9.7500   -1.2990    0.0000 N   0  0  0  0  0  0  0  0  0  0  0  0
   10.5000    0.0000    0.0000 C   0  0  0  0  0  0  0  0  0  0  0  0
    9.7500    1.2990    0.0000 C   0  0  0  0  0  0  0  0  0  0  0  0
    8.2500    1.2990    0.0000 O   0  0  0  0  0  0  0  0  0  0  0  0
   10.5000    2.5981    0.0000 N   0  0  0  0  0  0  0  0  0  0  0  0
    9.7500    3.8971    0.0000 C   0  0  0  0  0  0  0  0  0  0  0  0
   10.5000    5.1962    0.0000 C   0  0  0  0  0  0  0  0  0  0  0  0
    9.7500    6.4952    0.0000 C   0  0  0  0  0  0  0  0  0  0  0  0
   10.5000    7.7942    0.0000 C   0  0  0  0  0  0  0  0  0  0  0  0
    8.2500    6.4952    0.0000 C   0  0  0  0  0  0  0  0  0  0  0  0
    8.2500    3.8971    0.0000 C   0  0  0  0  0  0  0  0  0  0  0  0
    7.5000    5.1962    0.0000 N   0  0  0  0  0  0  0  0  0  0  0  0
    7.5000    2.5981    0.0000 O   0  0  0  0  0  0  0  0  0  0  0  0
   12.0000    0.0000    0.0000 C   0  0  0  0  0  0  0  0  0  0  0  0
   12.7500    1.2990    0.0000 C   0  0  0  0  0  0  0  0  0  0  0  0
   12.7500   -1.2990    0.0000 O   0  0  0  0  0  0  0  0  0  0  0  0
    3.7500   -6.4952    0.0000 C   0  0  0  0  0  0  0  0  0  0  0  0
    3.0000   -7.7942    0.0000 C   0  0  0  0  0  0  0  0  0  0  0  0
    5.2500   -6.4952    0.0000 O   0  0  0  0  0  0  0  0  0  0  0  0
  1  2  1  0
  2  3  2  0
  2  4  1  0
  5  4  1  6
  5  6  1  0
  6  7  2  0
  6  8  1  0
  8  9  1  0
  9 10  1  1
 10 11  1  0
 11 12  2  0
 12 13  1  0
 13 14  2  0
 14 15  1  0
 15 16  1  0
 16 17  2  0
 16 18  1  0
 16 19  1  0
 14 20  1  0
 20 21  2  0
  9 22  1  0
 22 23  2  0
 22 24  1  0
 24 25  1  0
 25 26  1  6
 26 27  1  0
 27 28  1  0
 28 29  2  0
 28 30  1  0
 25 31  1  0
 31 32  2  0
 31 33  1  0
 34 33  1  6
 34 35  1  0
 35 36  2  0
 35 37  1  0
 37 38  1  0
 38 39  1  6
 39 40  1  0
 40 41  1  0
 40 42  1  0
 38 43  1  0
 43 44  1  0
 43 45  2  0
 34 46  1  0
 46 47  1  1
 46 48  1  0
  5 49  1  0
 49 50  1  6
 49 51  1  0
 21 11  1  0
M  END
>  <Compound_ID>  (245) 
CHEMBL2170584

>  <Molecule Name>  (245) 
nan

>  <Molecular Weight>  (245) 
746.71

>  <AlogP>  (245) 
-2.70

>  <Smiles>  (245) 
CC(=O)N[C@H](C(=O)N[C@@H](Cc1ccc(OP(=O)(O)O)cc1)C(=O)N[C@@H](CCC(=O)O)C(=O)N[C@H](C(=O)N[C@@H](CC(C)C)C(N)=O)[C@@H](C)O)[C@@H](C)O

>  <Standard Type>  (245) 
IC50

>  <Standard Relation>  (245) 
'='

>  <Standard Units>  (245) 
nM

>  <Standard Value>  (245) 
20000.0

>  <Assay ChEMBL ID>  (245) 
CHEMBL2173410

>  <Assay Description>  (245) 
Inhibition of SYK C-terminal domain binding to ITAM

>  <BAO Format ID>  (245) 
BAO_0000357

>  <BAO Label>  (245) 
single protein format

>  <Assay Organism>  (245) 
None

>  <Target ChEMBL ID>  (245) 
CHEMBL2599

>  <Target Name>  (245) 
Tyrosine-protein kinase SYK

>  <Target Organism>  (245) 
Homo sapiens

>  <Target Type>  (245) 
SINGLE PROTEIN

>  <Document ChEMBL ID>  (245) 
CHEMBL2169784

>  <Source Description>  (245) 
Scientific Literature

>  <Document Journal>  (245) 
J Med Chem

>  <Document Year>  (245) 
2012.0

>  <Active>  (245) 
0.0

>  <bits>  (245) 
<rdkit.DataStructs.cDataStructs.ExplicitBitVect object at 0x00000193F3411770>

>  <Group>  (245) 
G2

$$$$

     RDKit          2D

 22 24  0  0  0  0  0  0  0  0999 V2000
   -7.5000   -5.1962    0.0000 N   0  0  0  0  0  0  0  0  0  0  0  0
   -6.0000   -5.1962    0.0000 C   0  0  0  0  0  0  0  0  0  0  0  0
   -5.2500   -3.8971    0.0000 C   0  0  0  0  0  0  0  0  0  0  0  0
   -3.7500   -3.8971    0.0000 C   0  0  0  0  0  0  0  0  0  0  0  0
   -3.0000   -2.5981    0.0000 N   0  0  0  0  0  0  0  0  0  0  0  0
   -1.5000   -2.5981    0.0000 C   0  0  0  0  0  0  0  0  0  0  0  0
   -0.7500   -3.8971    0.0000 N   0  0  0  0  0  0  0  0  0  0  0  0
    0.7500   -3.8971    0.0000 C   0  0  0  0  0  0  0  0  0  0  0  0
    1.5000   -5.1962    0.0000 C   0  0  0  0  0  0  0  0  0  0  0  0
    0.7500   -6.4952    0.0000 C   0  0  0  0  0  0  0  0  0  0  0  0
    1.5000   -7.7942    0.0000 C   0  0  0  0  0  0  0  0  0  0  0  0
    3.0000   -7.7942    0.0000 C   0  0  0  0  0  0  0  0  0  0  0  0
    3.7500   -6.4952    0.0000 C   0  0  0  0  0  0  0  0  0  0  0  0
    3.0000   -5.1962    0.0000 C   0  0  0  0  0  0  0  0  0  0  0  0
    3.7500   -3.8971    0.0000 Br  0  0  0  0  0  0  0  0  0  0  0  0
    1.5000   -2.5981    0.0000 C   0  0  0  0  0  0  0  0  0  0  0  0
    0.7500   -1.2990    0.0000 C   0  0  0  0  0  0  0  0  0  0  0  0
    1.5000    0.0000    0.0000 N   0  0  0  0  0  0  0  0  0  0  0  0
    0.7500    1.2990    0.0000 C   0  0  0  0  0  0  0  0  0  0  0  0
   -0.7500    1.2990    0.0000 C   0  0  0  0  0  0  0  0  0  0  0  0
   -1.5000    0.0000    0.0000 C   0  0  0  0  0  0  0  0  0  0  0  0
   -0.7500   -1.2990    0.0000 C   0  0  0  0  0  0  0  0  0  0  0  0
  1  2  1  0
  2  3  1  0
  3  4  1  0
  4  5  1  0
  5  6  1  0
  6  7  2  0
  7  8  1  0
  8  9  1  0
  9 10  2  0
 10 11  1  0
 11 12  2  0
 12 13  1  0
 13 14  2  0
 14 15  1  0
  8 16  2  0
 16 17  1  0
 17 18  2  0
 18 19  1  0
 19 20  2  0
 20 21  1  0
 21 22  2  0
 22  6  1  0
 14  9  1  0
 22 17  1  0
M  END
>  <Compound_ID>  (246) 
CHEMBL33175

>  <Molecule Name>  (246) 
nan

>  <Molecular Weight>  (246) 
357.26

>  <AlogP>  (246) 
3.82

>  <Smiles>  (246) 
NCCCNc1nc(-c2ccccc2Br)cc2ncccc12

>  <Standard Type>  (246) 
IC50

>  <Standard Relation>  (246) 
'='

>  <Standard Units>  (246) 
nM

>  <Standard Value>  (246) 
25000.0

>  <Assay ChEMBL ID>  (246) 
CHEMBL2428110

>  <Assay Description>  (246) 
Inhibition of spleen tyrosine kinase (unknown origin)

>  <BAO Format ID>  (246) 
BAO_0000357

>  <BAO Label>  (246) 
single protein format

>  <Assay Organism>  (246) 
Homo sapiens

>  <Target ChEMBL ID>  (246) 
CHEMBL2599

>  <Target Name>  (246) 
Tyrosine-protein kinase SYK

>  <Target Organism>  (246) 
Homo sapiens

>  <Target Type>  (246) 
SINGLE PROTEIN

>  <Document ChEMBL ID>  (246) 
CHEMBL2424544

>  <Source Description>  (246) 
Scientific Literature

>  <Document Journal>  (246) 
Eur J Med Chem

>  <Document Year>  (246) 
2013.0

>  <Active>  (246) 
0.0

>  <bits>  (246) 
<rdkit.DataStructs.cDataStructs.ExplicitBitVect object at 0x00000193F3411540>

>  <Group>  (246) 
G2

$$$$

     RDKit          2D

 22 23  0  0  0  0  0  0  0  0999 V2000
    7.5785   -6.6032    0.0000 C   0  0  0  0  0  0  0  0  0  0  0  0
    6.3650   -5.7215    0.0000 C   0  0  0  0  0  0  0  0  0  0  0  0
    6.5218   -4.2298    0.0000 C   0  0  0  0  0  0  0  0  0  0  0  0
    5.3083   -3.3481    0.0000 N   0  0  0  0  0  0  0  0  0  0  0  0
    3.8817   -3.8116    0.0000 C   0  0  0  0  0  0  0  0  0  0  0  0
    3.4182   -5.2382    0.0000 O   0  0  0  0  0  0  0  0  0  0  0  0
    3.0000   -2.5981    0.0000 C   0  0  0  0  0  0  0  0  0  0  0  0
    1.5000   -2.5981    0.0000 C   0  0  0  0  0  0  0  0  0  0  0  0
    0.7500   -1.2990    0.0000 C   0  0  0  0  0  0  0  0  0  0  0  0
    1.5000    0.0000    0.0000 C   0  0  0  0  0  0  0  0  0  0  0  0
    0.7500    1.2990    0.0000 C   0  0  0  0  0  0  0  0  0  0  0  0
   -0.7500    1.2990    0.0000 C   0  0  0  0  0  0  0  0  0  0  0  0
   -1.5000    0.0000    0.0000 C   0  0  0  0  0  0  0  0  0  0  0  0
   -3.0000    0.0000    0.0000 O   0  0  0  0  0  0  0  0  0  0  0  0
   -3.7500    1.2990    0.0000 C   0  0  0  0  0  0  0  0  0  0  0  0
   -5.2500    1.2990    0.0000 C   0  0  0  0  0  0  0  0  0  0  0  0
   -6.0000    0.0000    0.0000 O   0  0  0  0  0  0  0  0  0  0  0  0
   -6.0000    2.5981    0.0000 O   0  0  0  0  0  0  0  0  0  0  0  0
   -0.7500   -1.2990    0.0000 C   0  0  0  0  0  0  0  0  0  0  0  0
    3.8817   -1.3846    0.0000 S   0  0  0  0  0  0  0  0  0  0  0  0
    5.3083   -1.8481    0.0000 C   0  0  0  0  0  0  0  0  0  0  0  0
    6.5218   -0.9664    0.0000 S   0  0  0  0  0  0  0  0  0  0  0  0
  1  2  2  0
  2  3  1  0
  3  4  1  0
  4  5  1  0
  5  6  2  0
  5  7  1  0
  7  8  2  0
  8  9  1  0
  9 10  2  0
 10 11  1  0
 11 12  2  0
 12 13  1  0
 13 14  1  0
 14 15  1  0
 15 16  1  0
 16 17  2  0
 16 18  1  0
 13 19  2  0
  7 20  1  0
 20 21  1  0
 21 22  2  0
 21  4  1  0
 19  9  1  0
M  END
>  <Compound_ID>  (247) 
CHEMBL4104278

>  <Molecule Name>  (247) 
nan

>  <Molecular Weight>  (247) 
335.41

>  <AlogP>  (247) 
2.54

>  <Smiles>  (247) 
C=CCN1C(=O)/C(=C/c2cccc(OCC(=O)O)c2)SC1=S

>  <Standard Type>  (247) 
IC50

>  <Standard Relation>  (247) 
'='

>  <Standard Units>  (247) 
nM

>  <Standard Value>  (247) 
28400.0

>  <Assay ChEMBL ID>  (247) 
CHEMBL4010460

>  <Assay Description>  (247) 
Inhibition of SYK (unknown origin) using FAM-labeled peptide as substrate preincubated for 10 mins followed by substrate addition measured after 25 mins

>  <BAO Format ID>  (247) 
BAO_0000357

>  <BAO Label>  (247) 
single protein format

>  <Assay Organism>  (247) 
Homo sapiens

>  <Target ChEMBL ID>  (247) 
CHEMBL2599

>  <Target Name>  (247) 
Tyrosine-protein kinase SYK

>  <Target Organism>  (247) 
Homo sapiens

>  <Target Type>  (247) 
SINGLE PROTEIN

>  <Document ChEMBL ID>  (247) 
CHEMBL4007463

>  <Source Description>  (247) 
Scientific Literature

>  <Document Journal>  (247) 
Bioorg Med Chem Lett

>  <Document Year>  (247) 
2017.0

>  <Active>  (247) 
0.0

>  <bits>  (247) 
<rdkit.DataStructs.cDataStructs.ExplicitBitVect object at 0x00000193F3411380>

>  <Group>  (247) 
G2

$$$$

     RDKit          2D

 31 35  0  0  0  0  0  0  0  0999 V2000
   -6.2940    7.2357    0.0000 C   0  0  0  0  0  0  0  0  0  0  0  0
   -5.1793    6.2320    0.0000 O   0  0  0  0  0  0  0  0  0  0  0  0
   -3.7527    6.6955    0.0000 C   0  0  0  0  0  0  0  0  0  0  0  0
   -3.4408    8.1628    0.0000 C   0  0  0  0  0  0  0  0  0  0  0  0
   -2.0143    8.6263    0.0000 C   0  0  0  0  0  0  0  0  0  0  0  0
   -1.7024   10.0935    0.0000 N   0  0  0  0  0  0  0  0  0  0  0  0
   -0.2758   10.5570    0.0000 C   0  0  0  0  0  0  0  0  0  0  0  0
    0.0361   12.0242    0.0000 C   0  0  0  0  0  0  0  0  0  0  0  0
   -1.0786   13.0279    0.0000 O   0  0  0  0  0  0  0  0  0  0  0  0
   -2.5052   12.5644    0.0000 C   0  0  0  0  0  0  0  0  0  0  0  0
   -2.8171   11.0972    0.0000 C   0  0  0  0  0  0  0  0  0  0  0  0
   -0.8995    7.6226    0.0000 C   0  0  0  0  0  0  0  0  0  0  0  0
   -1.2114    6.1554    0.0000 C   0  0  0  0  0  0  0  0  0  0  0  0
   -2.6380    5.6918    0.0000 C   0  0  0  0  0  0  0  0  0  0  0  0
   -2.9499    4.2246    0.0000 N   0  0  0  0  0  0  0  0  0  0  0  0
   -1.8351    3.2209    0.0000 C   0  0  0  0  0  0  0  0  0  0  0  0
   -0.4086    3.6844    0.0000 N   0  0  0  0  0  0  0  0  0  0  0  0
    0.7062    2.6807    0.0000 C   0  0  0  0  0  0  0  0  0  0  0  0
    2.1328    3.1443    0.0000 N   0  0  0  0  0  0  0  0  0  0  0  0
    2.4446    4.6115    0.0000 C   0  0  0  0  0  0  0  0  0  0  0  0
    3.8712    5.0750    0.0000 C   0  0  0  0  0  0  0  0  0  0  0  0
    4.1831    6.5422    0.0000 C   0  0  0  0  0  0  0  0  0  0  0  0
    3.0684    7.5459    0.0000 C   0  0  0  0  0  0  0  0  0  0  0  0
    1.6418    7.0824    0.0000 C   0  0  0  0  0  0  0  0  0  0  0  0
    1.3299    5.6152    0.0000 C   0  0  0  0  0  0  0  0  0  0  0  0
    0.3943    1.2135    0.0000 C   0  0  0  0  0  0  0  0  0  0  0  0
    1.2760    0.0000    0.0000 C   0  0  0  0  0  0  0  0  0  0  0  0
    0.3943   -1.2135    0.0000 C   0  0  0  0  0  0  0  0  0  0  0  0
   -1.0323   -0.7500    0.0000 N   0  0  0  0  0  0  0  0  0  0  0  0
   -1.0323    0.7500    0.0000 C   0  0  0  0  0  0  0  0  0  0  0  0
   -2.1470    1.7537    0.0000 N   0  0  0  0  0  0  0  0  0  0  0  0
  1  2  1  0
  2  3  1  0
  3  4  2  0
  4  5  1  0
  5  6  1  0
  6  7  1  0
  7  8  1  0
  8  9  1  0
  9 10  1  0
 10 11  1  0
  5 12  2  0
 12 13  1  0
 13 14  2  0
 14 15  1  0
 15 16  1  0
 16 17  2  0
 17 18  1  0
 18 19  1  0
 19 20  1  0
 20 21  1  0
 21 22  1  0
 22 23  1  0
 23 24  1  0
 24 25  1  0
 18 26  2  0
 26 27  1  0
 27 28  2  0
 28 29  1  0
 29 30  1  0
 30 31  2  0
 14  3  1  0
 31 16  1  0
 11  6  1  0
 25 20  1  0
 30 26  1  0
M  END
>  <Compound_ID>  (248) 
CHEMBL4076767

>  <Molecule Name>  (248) 
nan

>  <Molecular Weight>  (248) 
422.53

>  <AlogP>  (248) 
4.29

>  <Smiles>  (248) 
COc1cc(N2CCOCC2)ccc1Nc1nc(NC2CCCCC2)c2cc[nH]c2n1

>  <Standard Type>  (248) 
IC50

>  <Standard Relation>  (248) 
'='

>  <Standard Units>  (248) 
nM

>  <Standard Value>  (248) 
153000.0

>  <Assay ChEMBL ID>  (248) 
CHEMBL4050198

>  <Assay Description>  (248) 
Inhibition of human SYK using poly[Glu:Tyr] (4:1) as substrate in presence of [gamma-32P]ATP

>  <BAO Format ID>  (248) 
BAO_0000357

>  <BAO Label>  (248) 
single protein format

>  <Assay Organism>  (248) 
Homo sapiens

>  <Target ChEMBL ID>  (248) 
CHEMBL2599

>  <Target Name>  (248) 
Tyrosine-protein kinase SYK

>  <Target Organism>  (248) 
Homo sapiens

>  <Target Type>  (248) 
SINGLE PROTEIN

>  <Document ChEMBL ID>  (248) 
CHEMBL4049399

>  <Source Description>  (248) 
Scientific Literature

>  <Document Journal>  (248) 
Bioorg Med Chem

>  <Document Year>  (248) 
2017.0

>  <Active>  (248) 
0.0

>  <bits>  (248) 
<rdkit.DataStructs.cDataStructs.ExplicitBitVect object at 0x00000193F3413220>

>  <Group>  (248) 
G2

$$$$

     RDKit          2D

 20 22  0  0  0  0  0  0  0  0999 V2000
   -3.7500   -3.8971    0.0000 C   0  0  0  0  0  0  0  0  0  0  0  0
   -3.0000   -2.5981    0.0000 N   0  0  0  0  0  0  0  0  0  0  0  0
   -1.5000   -2.5981    0.0000 C   0  0  0  0  0  0  0  0  0  0  0  0
   -0.7500   -3.8971    0.0000 N   0  0  0  0  0  0  0  0  0  0  0  0
    0.7500   -3.8971    0.0000 C   0  0  0  0  0  0  0  0  0  0  0  0
    1.5000   -5.1962    0.0000 C   0  0  0  0  0  0  0  0  0  0  0  0
    0.7500   -6.4952    0.0000 C   0  0  0  0  0  0  0  0  0  0  0  0
    1.5000   -7.7942    0.0000 C   0  0  0  0  0  0  0  0  0  0  0  0
    3.0000   -7.7942    0.0000 C   0  0  0  0  0  0  0  0  0  0  0  0
    3.7500   -9.0933    0.0000 O   0  0  0  0  0  0  0  0  0  0  0  0
    3.0000  -10.3923    0.0000 C   0  0  0  0  0  0  0  0  0  0  0  0
    3.7500   -6.4952    0.0000 C   0  0  0  0  0  0  0  0  0  0  0  0
    3.0000   -5.1962    0.0000 C   0  0  0  0  0  0  0  0  0  0  0  0
    1.5000   -2.5981    0.0000 N   0  0  0  0  0  0  0  0  0  0  0  0
    0.7500   -1.2990    0.0000 C   0  0  0  0  0  0  0  0  0  0  0  0
    1.5000    0.0000    0.0000 C   0  0  0  0  0  0  0  0  0  0  0  0
    0.7500    1.2990    0.0000 C   0  0  0  0  0  0  0  0  0  0  0  0
   -0.7500    1.2990    0.0000 C   0  0  0  0  0  0  0  0  0  0  0  0
   -1.5000    0.0000    0.0000 C   0  0  0  0  0  0  0  0  0  0  0  0
   -0.7500   -1.2990    0.0000 C   0  0  0  0  0  0  0  0  0  0  0  0
  1  2  1  0
  2  3  1  0
  3  4  2  0
  4  5  1  0
  5  6  1  0
  6  7  2  0
  7  8  1  0
  8  9  2  0
  9 10  1  0
 10 11  1  0
  9 12  1  0
 12 13  2  0
  5 14  2  0
 14 15  1  0
 15 16  2  0
 16 17  1  0
 17 18  2  0
 18 19  1  0
 19 20  2  0
 20  3  1  0
 13  6  1  0
 20 15  1  0
M  END
>  <Compound_ID>  (249) 
CHEMBL33373

>  <Molecule Name>  (249) 
nan

>  <Molecular Weight>  (249) 
265.32

>  <AlogP>  (249) 
3.35

>  <Smiles>  (249) 
CNc1nc(-c2ccc(OC)cc2)nc2ccccc12

>  <Standard Type>  (249) 
IC50

>  <Standard Relation>  (249) 
'='

>  <Standard Units>  (249) 
nM

>  <Standard Value>  (249) 
40000.0

>  <Assay ChEMBL ID>  (249) 
CHEMBL1022010

>  <Assay Description>  (249) 
Inhibition of recombinant Syk

>  <BAO Format ID>  (249) 
BAO_0000357

>  <BAO Label>  (249) 
single protein format

>  <Assay Organism>  (249) 
None

>  <Target ChEMBL ID>  (249) 
CHEMBL2599

>  <Target Name>  (249) 
Tyrosine-protein kinase SYK

>  <Target Organism>  (249) 
Homo sapiens

>  <Target Type>  (249) 
SINGLE PROTEIN

>  <Document ChEMBL ID>  (249) 
CHEMBL1138583

>  <Source Description>  (249) 
Scientific Literature

>  <Document Journal>  (249) 
Bioorg Med Chem Lett

>  <Document Year>  (249) 
2009.0

>  <Active>  (249) 
0.0

>  <bits>  (249) 
<rdkit.DataStructs.cDataStructs.ExplicitBitVect object at 0x00000193F3412570>

>  <Group>  (249) 
G2

$$$$

     RDKit          2D

 32 35  0  0  0  0  0  0  0  0999 V2000
    3.0000    0.0000    0.0000 C   0  0  0  0  0  0  0  0  0  0  0  0
    1.5000    0.0000    0.0000 N   0  0  0  0  0  0  0  0  0  0  0  0
    0.7500   -1.2990    0.0000 C   0  0  0  0  0  0  0  0  0  0  0  0
   -0.7500   -1.2990    0.0000 N   0  0  0  0  0  0  0  0  0  0  0  0
   -1.5000    0.0000    0.0000 C   0  0  0  0  0  0  0  0  0  0  0  0
   -3.0000    0.0000    0.0000 C   0  0  0  0  0  0  0  0  0  0  0  0
   -3.7500    1.2990    0.0000 C   0  0  0  0  0  0  0  0  0  0  0  0
   -5.2500    1.2990    0.0000 C   0  0  0  0  0  0  0  0  0  0  0  0
   -6.0000    2.5981    0.0000 C   0  0  0  0  0  0  0  0  0  0  0  0
   -7.5000    2.5981    0.0000 C   0  0  0  0  0  0  0  0  0  0  0  0
   -8.2500    1.2990    0.0000 C   0  0  0  0  0  0  0  0  0  0  0  0
   -9.7500    1.2990    0.0000 C   0  0  0  0  0  0  0  0  0  0  0  0
   -9.7500   -0.2010    0.0000 C   0  0  0  0  0  0  0  0  0  0  0  0
   -9.7500    2.7990    0.0000 C   0  0  0  0  0  0  0  0  0  0  0  0
  -11.2500    1.2990    0.0000 O   0  0  0  0  0  0  0  0  0  0  0  0
   -7.5000    0.0000    0.0000 N   0  0  0  0  0  0  0  0  0  0  0  0
   -6.0000    0.0000    0.0000 C   0  0  0  0  0  0  0  0  0  0  0  0
   -3.0000    2.5981    0.0000 N   0  0  0  0  0  0  0  0  0  0  0  0
   -1.5000    2.5981    0.0000 C   0  0  0  0  0  0  0  0  0  0  0  0
   -0.7500    3.8971    0.0000 N   0  0  0  0  0  0  0  0  0  0  0  0
   -1.5000    5.1962    0.0000 C   0  0  0  0  0  0  0  0  0  0  0  0
   -0.7500    6.4952    0.0000 C   0  0  0  0  0  0  0  0  0  0  0  0
   -1.5000    7.7942    0.0000 C   0  0  0  0  0  0  0  0  0  0  0  0
   -3.0000    7.7942    0.0000 N   0  0  0  0  0  0  0  0  0  0  0  0
   -3.7500    9.0933    0.0000 C   0  0  0  0  0  0  0  0  0  0  0  0
   -3.0000   10.3923    0.0000 C   0  0  0  0  0  0  0  0  0  0  0  0
   -3.7500   11.6913    0.0000 O   0  0  0  0  0  0  0  0  0  0  0  0
   -3.7500    6.4952    0.0000 C   0  0  0  0  0  0  0  0  0  0  0  0
   -3.0000    5.1962    0.0000 C   0  0  0  0  0  0  0  0  0  0  0  0
   -0.7500    1.2990    0.0000 C   0  0  0  0  0  0  0  0  0  0  0  0
    0.7500    1.2990    0.0000 C   0  0  0  0  0  0  0  0  0  0  0  0
    1.5000    2.5981    0.0000 O   0  0  0  0  0  0  0  0  0  0  0  0
  1  2  1  0
  2  3  1  0
  3  4  2  0
  4  5  1  0
  5  6  2  0
  6  7  1  0
  7  8  1  0
  8  9  2  0
  9 10  1  0
 10 11  2  0
 11 12  1  0
 12 13  1  0
 12 14  1  0
 12 15  1  0
 11 16  1  0
 16 17  2  0
  7 18  2  0
 18 19  1  0
 19 20  1  0
 20 21  1  0
 21 22  1  0
 22 23  1  0
 23 24  1  0
 24 25  1  0
 25 26  1  0
 26 27  1  0
 24 28  1  0
 28 29  1  0
 19 30  2  0
 30 31  1  0
 31 32  2  0
 31  2  1  0
 30  5  1  0
 17  8  1  0
 29 21  1  0
M  END
>  <Compound_ID>  (250) 
CHEMBL3701620

>  <Molecule Name>  (250) 
nan

>  <Molecular Weight>  (250) 
438.53

>  <AlogP>  (250) 
1.49

>  <Smiles>  (250) 
Cn1cnc2cc(-c3ccc(C(C)(C)O)nc3)nc(NC3CCN(CCO)CC3)c2c1=O

>  <Standard Type>  (250) 
IC50

>  <Standard Relation>  (250) 
'='

>  <Standard Units>  (250) 
nM

>  <Standard Value>  (250) 
20910.0

>  <Assay ChEMBL ID>  (250) 
CHEMBL3705362

>  <Assay Description>  (250) 
Mobility-Shift kinase assay: Compounds of the examples provided herein were assessed for their ability to inhibit Syk kinase by utilizing Caliper Life Sciences' proprietary LabChip technology. The off-chip incubation mobility-shift kinase assay uses a microfluidic chip to measure the conversion of a fluorescent peptide substrate to a phosphorylated product. The reaction mixture, from a microtiter plate well, is introduced through a capillary sipper onto the chip, where the nonphosphorylated substrate and phosphorylated product are separated by electrophoresis and detected via laser induced fluorescence. The signature of the fluorescence signal over time reveals the extent of the reaction. The phosphorylated product migrates through the chip faster than the non-phosphorylated substrate, and signals from the two forms of the peptide appear as distinct peaks.

>  <BAO Format ID>  (250) 
BAO_0000357

>  <BAO Label>  (250) 
single protein format

>  <Assay Organism>  (250) 
Homo sapiens

>  <Target ChEMBL ID>  (250) 
CHEMBL2599

>  <Target Name>  (250) 
Tyrosine-protein kinase SYK

>  <Target Organism>  (250) 
Homo sapiens

>  <Target Type>  (250) 
SINGLE PROTEIN

>  <Document ChEMBL ID>  (250) 
CHEMBL3639055

>  <Source Description>  (250) 
BindingDB Database

>  <Document Journal>  (250) 
nan

>  <Document Year>  (250) 
2014.0

>  <Active>  (250) 
0.0

>  <bits>  (250) 
<rdkit.DataStructs.cDataStructs.ExplicitBitVect object at 0x00000193F34123B0>

>  <Group>  (250) 
G2

$$$$

     RDKit          2D

 27 29  0  0  0  0  0  0  0  0999 V2000
    4.5000    0.0000    0.0000 N   0  0  0  0  0  0  0  0  0  0  0  0
    3.0000    0.0000    0.0000 S   0  0  0  0  0  0  0  0  0  0  0  0
    3.0000   -1.5000    0.0000 O   0  0  0  0  0  0  0  0  0  0  0  0
    3.0000    1.5000    0.0000 O   0  0  0  0  0  0  0  0  0  0  0  0
    1.5000    0.0000    0.0000 C   0  0  0  0  0  0  0  0  0  0  0  0
    0.7500   -1.2990    0.0000 C   0  0  0  0  0  0  0  0  0  0  0  0
   -0.7500   -1.2990    0.0000 C   0  0  0  0  0  0  0  0  0  0  0  0
   -1.5000    0.0000    0.0000 C   0  0  0  0  0  0  0  0  0  0  0  0
   -3.0000    0.0000    0.0000 C   0  0  0  0  0  0  0  0  0  0  0  0
   -3.7500    1.2990    0.0000 C   0  0  0  0  0  0  0  0  0  0  0  0
   -5.2500    1.2990    0.0000 N   0  0  0  0  0  0  0  0  0  0  0  0
   -6.0000    2.5981    0.0000 C   0  0  0  0  0  0  0  0  0  0  0  0
   -5.2500    3.8971    0.0000 N   0  0  0  0  0  0  0  0  0  0  0  0
   -6.0000    5.1962    0.0000 C   0  0  0  0  0  0  0  0  0  0  0  0
   -7.5000    5.1962    0.0000 C   0  0  0  0  0  0  0  0  0  0  0  0
   -8.2500    3.8971    0.0000 N   0  0  0  0  0  0  0  0  0  0  0  0
   -9.7500    3.8971    0.0000 C   0  0  0  0  0  0  0  0  0  0  0  0
  -10.5000    5.1962    0.0000 C   0  0  0  0  0  0  0  0  0  0  0  0
  -12.0000    5.1962    0.0000 C   0  0  0  0  0  0  0  0  0  0  0  0
  -12.7500    3.8971    0.0000 C   0  0  0  0  0  0  0  0  0  0  0  0
  -12.0000    2.5981    0.0000 C   0  0  0  0  0  0  0  0  0  0  0  0
  -12.7500    1.2990    0.0000 F   0  0  0  0  0  0  0  0  0  0  0  0
  -10.5000    2.5981    0.0000 C   0  0  0  0  0  0  0  0  0  0  0  0
   -7.5000    2.5981    0.0000 C   0  0  0  0  0  0  0  0  0  0  0  0
   -8.2500    1.2990    0.0000 O   0  0  0  0  0  0  0  0  0  0  0  0
   -0.7500    1.2990    0.0000 C   0  0  0  0  0  0  0  0  0  0  0  0
    0.7500    1.2990    0.0000 C   0  0  0  0  0  0  0  0  0  0  0  0
  1  2  1  0
  2  3  2  0
  2  4  2  0
  2  5  1  0
  5  6  2  0
  6  7  1  0
  7  8  2  0
  8  9  1  0
  9 10  1  0
 10 11  1  0
 11 12  1  0
 12 13  2  0
 13 14  1  0
 14 15  2  0
 15 16  1  0
 16 17  1  0
 17 18  2  0
 18 19  1  0
 19 20  2  0
 20 21  1  0
 21 22  1  0
 21 23  2  0
 16 24  1  0
 24 25  2  0
  8 26  1  0
 26 27  2  0
 27  5  1  0
 24 12  1  0
 23 17  1  0
M  END
>  <Compound_ID>  (251) 
CHEMBL4082917

>  <Molecule Name>  (251) 
nan

>  <Molecular Weight>  (251) 
388.42

>  <AlogP>  (251) 
1.67

>  <Smiles>  (251) 
NS(=O)(=O)c1ccc(CCNc2nccn(-c3cccc(F)c3)c2=O)cc1

>  <Standard Type>  (251) 
IC50

>  <Standard Relation>  (251) 
'='

>  <Standard Units>  (251) 
nM

>  <Standard Value>  (251) 
27000.0

>  <Assay ChEMBL ID>  (251) 
CHEMBL4010460

>  <Assay Description>  (251) 
Inhibition of SYK (unknown origin) using FAM-labeled peptide as substrate preincubated for 10 mins followed by substrate addition measured after 25 mins

>  <BAO Format ID>  (251) 
BAO_0000357

>  <BAO Label>  (251) 
single protein format

>  <Assay Organism>  (251) 
Homo sapiens

>  <Target ChEMBL ID>  (251) 
CHEMBL2599

>  <Target Name>  (251) 
Tyrosine-protein kinase SYK

>  <Target Organism>  (251) 
Homo sapiens

>  <Target Type>  (251) 
SINGLE PROTEIN

>  <Document ChEMBL ID>  (251) 
CHEMBL4007463

>  <Source Description>  (251) 
Scientific Literature

>  <Document Journal>  (251) 
Bioorg Med Chem Lett

>  <Document Year>  (251) 
2017.0

>  <Active>  (251) 
0.0

>  <bits>  (251) 
<rdkit.DataStructs.cDataStructs.ExplicitBitVect object at 0x00000193F34109E0>

>  <Group>  (251) 
G2

$$$$

     RDKit          2D

 30 33  0  0  0  0  0  0  0  0999 V2000
    3.0000   -7.7942    0.0000 O   0  0  0  0  0  0  0  0  0  0  0  0
    1.5000   -7.7942    0.0000 C   0  0  0  0  0  0  0  0  0  0  0  0
    0.7500   -6.4952    0.0000 C   0  0  0  0  0  0  0  0  0  0  0  0
    1.5000   -5.1962    0.0000 C   0  0  0  0  0  0  0  0  0  0  0  0
    0.7500   -3.8971    0.0000 C   0  0  0  0  0  0  0  0  0  0  0  0
    1.5000   -2.5981    0.0000 N   0  0  0  0  0  0  0  0  0  0  0  0
    0.7500   -1.2990    0.0000 C   0  0  0  0  0  0  0  0  0  0  0  0
    1.5000    0.0000    0.0000 C   0  0  0  0  0  0  0  0  0  0  0  0
    0.7500    1.2990    0.0000 C   0  0  0  0  0  0  0  0  0  0  0  0
   -0.7500    1.2990    0.0000 C   0  0  0  0  0  0  0  0  0  0  0  0
   -1.5000    0.0000    0.0000 C   0  0  0  0  0  0  0  0  0  0  0  0
   -0.7500   -1.2990    0.0000 C   0  0  0  0  0  0  0  0  0  0  0  0
   -1.5000   -2.5981    0.0000 C   0  0  0  0  0  0  0  0  0  0  0  0
   -3.0000   -2.5981    0.0000 O   0  0  0  0  0  0  0  0  0  0  0  0
   -0.7500   -3.8971    0.0000 N   0  0  0  0  0  0  0  0  0  0  0  0
    0.7500   -9.0933    0.0000 N   0  0  0  0  0  0  0  0  0  0  0  0
    1.5000  -10.3923    0.0000 C   0  0  0  0  0  0  0  0  0  0  0  0
    2.9918  -10.5491    0.0000 N   0  0  0  0  0  0  0  0  0  0  0  0
    3.3037  -12.0163    0.0000 C   0  0  0  0  0  0  0  0  0  0  0  0
    2.0046  -12.7663    0.0000 C   0  0  0  0  0  0  0  0  0  0  0  0
    1.8478  -14.2581    0.0000 C   0  0  0  0  0  0  0  0  0  0  0  0
    0.4775  -14.8682    0.0000 C   0  0  0  0  0  0  0  0  0  0  0  0
   -0.7360  -13.9865    0.0000 C   0  0  0  0  0  0  0  0  0  0  0  0
   -2.1063  -14.5966    0.0000 C   0  0  0  0  0  0  0  0  0  0  0  0
   -2.2631  -16.0884    0.0000 C   0  0  0  0  0  0  0  0  0  0  0  0
   -3.6335  -16.6985    0.0000 F   0  0  0  0  0  0  0  0  0  0  0  0
   -1.0496  -16.9701    0.0000 C   0  0  0  0  0  0  0  0  0  0  0  0
   -1.2064  -18.4619    0.0000 F   0  0  0  0  0  0  0  0  0  0  0  0
    0.3207  -16.3600    0.0000 C   0  0  0  0  0  0  0  0  0  0  0  0
    0.8899  -11.7626    0.0000 S   0  0  0  0  0  0  0  0  0  0  0  0
  1  2  2  0
  2  3  1  0
  3  4  1  0
  4  5  1  0
  5  6  2  0
  6  7  1  0
  7  8  2  0
  8  9  1  0
  9 10  2  0
 10 11  1  0
 11 12  2  0
 12 13  1  0
 13 14  2  0
 13 15  1  0
  2 16  1  0
 16 17  1  0
 17 18  2  0
 18 19  1  0
 19 20  2  0
 20 21  1  0
 21 22  1  0
 22 23  2  0
 23 24  1  0
 24 25  2  0
 25 26  1  0
 25 27  1  0
 27 28  1  0
 27 29  2  0
 20 30  1  0
 15  5  1  0
 30 17  1  0
 12  7  1  0
 29 22  1  0
M  END
>  <Compound_ID>  (252) 
CHEMBL3125863

>  <Molecule Name>  (252) 
nan

>  <Molecular Weight>  (252) 
426.45

>  <AlogP>  (252) 
3.82

>  <Smiles>  (252) 
O=C(CCc1nc2ccccc2c(=O)[nH]1)Nc1ncc(Cc2ccc(F)c(F)c2)s1

>  <Standard Type>  (252) 
IC50

>  <Standard Relation>  (252) 
'='

>  <Standard Units>  (252) 
nM

>  <Standard Value>  (252) 
18400.0

>  <Assay ChEMBL ID>  (252) 
CHEMBL3130288

>  <Assay Description>  (252) 
Inhibition of Syk (unknown origin) by radiometric assay

>  <BAO Format ID>  (252) 
BAO_0000357

>  <BAO Label>  (252) 
single protein format

>  <Assay Organism>  (252) 
Homo sapiens

>  <Target ChEMBL ID>  (252) 
CHEMBL2599

>  <Target Name>  (252) 
Tyrosine-protein kinase SYK

>  <Target Organism>  (252) 
Homo sapiens

>  <Target Type>  (252) 
SINGLE PROTEIN

>  <Document ChEMBL ID>  (252) 
CHEMBL3124748

>  <Source Description>  (252) 
Scientific Literature

>  <Document Journal>  (252) 
Bioorg Med Chem Lett

>  <Document Year>  (252) 
2014.0

>  <Active>  (252) 
0.0

>  <bits>  (252) 
<rdkit.DataStructs.cDataStructs.ExplicitBitVect object at 0x00000193F34122D0>

>  <Group>  (252) 
G2

$$$$

     RDKit          2D

 34 37  0  0  0  0  0  0  0  0999 V2000
    3.0000    0.0000    0.0000 C   0  0  0  0  0  0  0  0  0  0  0  0
    1.5000    0.0000    0.0000 C   0  0  0  0  0  0  0  0  0  0  0  0
    0.7500   -1.2990    0.0000 N   0  0  0  0  0  0  0  0  0  0  0  0
   -0.7500   -1.2990    0.0000 C   0  0  0  0  0  0  0  0  0  0  0  0
   -1.5000   -2.5981    0.0000 N   0  0  0  0  0  0  0  0  0  0  0  0
   -3.0000   -2.5981    0.0000 C   0  0  0  0  0  0  0  0  0  0  0  0
   -3.8817   -3.8116    0.0000 N   0  0  0  0  0  0  0  0  0  0  0  0
   -5.3083   -3.3481    0.0000 C   0  0  0  0  0  0  0  0  0  0  0  0
   -5.3083   -1.8481    0.0000 C   0  0  0  0  0  0  0  0  0  0  0  0
   -6.5218   -0.9664    0.0000 C   0  0  0  0  0  0  0  0  0  0  0  0
   -7.8921   -1.5765    0.0000 O   0  0  0  0  0  0  0  0  0  0  0  0
   -6.3650    0.5254    0.0000 N   0  0  0  0  0  0  0  0  0  0  0  0
   -7.5785    1.4071    0.0000 C   0  0  0  0  0  0  0  0  0  0  0  0
   -7.4217    2.8988    0.0000 C   0  0  0  0  0  0  0  0  0  0  0  0
   -6.0514    3.5090    0.0000 Cl  0  0  0  0  0  0  0  0  0  0  0  0
   -8.6353    3.7805    0.0000 C   0  0  0  0  0  0  0  0  0  0  0  0
  -10.0056    3.1704    0.0000 C   0  0  0  0  0  0  0  0  0  0  0  0
  -10.1624    1.6786    0.0000 N   0  0  0  0  0  0  0  0  0  0  0  0
   -8.9488    0.7970    0.0000 C   0  0  0  0  0  0  0  0  0  0  0  0
   -9.1056   -0.6948    0.0000 C   0  0  0  0  0  0  0  0  0  0  0  0
   -3.8817   -1.3846    0.0000 S   0  0  0  0  0  0  0  0  0  0  0  0
   -1.5000    0.0000    0.0000 C   0  0  0  0  0  0  0  0  0  0  0  0
   -0.7500    1.2990    0.0000 C   0  0  0  0  0  0  0  0  0  0  0  0
   -1.5000    2.5981    0.0000 N   0  0  0  0  0  0  0  0  0  0  0  0
   -0.7500    3.8971    0.0000 N   0  0  0  0  0  0  0  0  0  0  0  0
    0.7500    3.8971    0.0000 C   0  0  0  0  0  0  0  0  0  0  0  0
    1.5000    5.1962    0.0000 C   0  0  0  0  0  0  0  0  0  0  0  0
    0.7500    6.4952    0.0000 N   0  0  0  0  0  0  0  0  0  0  0  0
    1.5000    7.7942    0.0000 C   0  0  0  0  0  0  0  0  0  0  0  0
    3.0000    7.7942    0.0000 C   0  0  0  0  0  0  0  0  0  0  0  0
    3.7500    9.0933    0.0000 O   0  0  0  0  0  0  0  0  0  0  0  0
   -0.7500    6.4952    0.0000 C   0  0  0  0  0  0  0  0  0  0  0  0
   -1.5000    5.1962    0.0000 C   0  0  0  0  0  0  0  0  0  0  0  0
    0.7500    1.2990    0.0000 N   0  0  0  0  0  0  0  0  0  0  0  0
  1  2  1  0
  2  3  2  0
  3  4  1  0
  4  5  1  0
  5  6  1  0
  6  7  2  0
  7  8  1  0
  8  9  2  0
  9 10  1  0
 10 11  2  0
 10 12  1  0
 12 13  1  0
 13 14  2  0
 14 15  1  0
 14 16  1  0
 16 17  2  0
 17 18  1  0
 18 19  2  0
 19 20  1  0
  9 21  1  0
  4 22  2  0
 22 23  1  0
 23 24  1  0
 24 25  1  0
 25 26  1  0
 26 27  1  0
 27 28  1  0
 28 29  1  0
 29 30  1  0
 30 31  1  0
 28 32  1  0
 32 33  1  0
 23 34  2  0
 34  2  1  0
 21  6  1  0
 33 25  1  0
 19 13  1  0
M  END
>  <Compound_ID>  (253) 
CHEMBL4855726

>  <Molecule Name>  (253) 
nan

>  <Molecular Weight>  (253) 
504.02

>  <AlogP>  (253) 
2.53

>  <Smiles>  (253) 
Cc1nc(Nc2ncc(C(=O)Nc3c(Cl)ccnc3C)s2)cc(NN2CCN(CCO)CC2)n1

>  <Standard Type>  (253) 
IC50

>  <Standard Relation>  (253) 
'='

>  <Standard Units>  (253) 
nM

>  <Standard Value>  (253) 
26000.0

>  <Assay ChEMBL ID>  (253) 
CHEMBL4807616

>  <Assay Description>  (253) 
Inhibition of SYK (unknown origin) using poly(Glu, Tyr) as substrate

>  <BAO Format ID>  (253) 
BAO_0000357

>  <BAO Label>  (253) 
single protein format

>  <Assay Organism>  (253) 
Homo sapiens

>  <Target ChEMBL ID>  (253) 
CHEMBL2599

>  <Target Name>  (253) 
Tyrosine-protein kinase SYK

>  <Target Organism>  (253) 
Homo sapiens

>  <Target Type>  (253) 
SINGLE PROTEIN

>  <Document ChEMBL ID>  (253) 
CHEMBL4806967

>  <Source Description>  (253) 
Patent Bioactivity Data

>  <Document Journal>  (253) 
nan

>  <Document Year>  (253) 
nan

>  <Active>  (253) 
0.0

>  <bits>  (253) 
<rdkit.DataStructs.cDataStructs.ExplicitBitVect object at 0x00000193F3412730>

>  <Group>  (253) 
G2

$$$$

     RDKit          2D

 37 41  0  0  0  0  0  0  0  0999 V2000
    3.8712    5.0750    0.0000 O   0  0  0  0  0  0  0  0  0  0  0  0
    4.1831    6.5422    0.0000 C   0  0  0  0  0  0  0  0  0  0  0  0
    3.0684    7.5459    0.0000 N   0  0  0  0  0  0  0  0  0  0  0  0
    1.6418    7.0824    0.0000 C   0  0  0  0  0  0  0  0  0  0  0  0
    0.5271    8.0861    0.0000 C   0  0  0  0  0  0  0  0  0  0  0  0
   -0.8995    7.6226    0.0000 C   0  0  0  0  0  0  0  0  0  0  0  0
   -1.2114    6.1554    0.0000 C   0  0  0  0  0  0  0  0  0  0  0  0
   -0.0967    5.1517    0.0000 C   0  0  0  0  0  0  0  0  0  0  0  0
   -0.4086    3.6844    0.0000 C   0  0  0  0  0  0  0  0  0  0  0  0
    0.7062    2.6807    0.0000 C   0  0  0  0  0  0  0  0  0  0  0  0
    0.3943    1.2135    0.0000 N   0  0  0  0  0  0  0  0  0  0  0  0
    1.2760    0.0000    0.0000 C   0  0  0  0  0  0  0  0  0  0  0  0
    0.3943   -1.2135    0.0000 C   0  0  0  0  0  0  0  0  0  0  0  0
   -1.0323   -0.7500    0.0000 N   0  0  0  0  0  0  0  0  0  0  0  0
   -1.0323    0.7500    0.0000 C   0  0  0  0  0  0  0  0  0  0  0  0
   -2.1470    1.7537    0.0000 C   0  0  0  0  0  0  0  0  0  0  0  0
   -3.5736    1.2902    0.0000 N   0  0  0  0  0  0  0  0  0  0  0  0
   -4.6883    2.2939    0.0000 C   0  0  0  0  0  0  0  0  0  0  0  0
   -6.1149    1.8303    0.0000 C   0  0  0  0  0  0  0  0  0  0  0  0
   -7.2296    2.8340    0.0000 C   0  0  0  0  0  0  0  0  0  0  0  0
   -8.6562    2.3705    0.0000 C   0  0  0  0  0  0  0  0  0  0  0  0
   -8.9681    0.9033    0.0000 N   0  0  0  0  0  0  0  0  0  0  0  0
   -7.8533   -0.1004    0.0000 C   0  0  0  0  0  0  0  0  0  0  0  0
   -6.4268    0.3631    0.0000 C   0  0  0  0  0  0  0  0  0  0  0  0
   -1.8351    3.2209    0.0000 N   0  0  0  0  0  0  0  0  0  0  0  0
    1.3299    5.6152    0.0000 C   0  0  0  0  0  0  0  0  0  0  0  0
    5.6097    7.0058    0.0000 N   0  0  0  0  0  0  0  0  0  0  0  0
    6.7244    6.0021    0.0000 C   0  0  0  0  0  0  0  0  0  0  0  0
    6.4125    4.5348    0.0000 C   0  0  0  0  0  0  0  0  0  0  0  0
    7.5272    3.5312    0.0000 C   0  0  0  0  0  0  0  0  0  0  0  0
    8.9538    3.9947    0.0000 C   0  0  0  0  0  0  0  0  0  0  0  0
    9.2657    5.4619    0.0000 C   0  0  0  0  0  0  0  0  0  0  0  0
   10.6923    5.9254    0.0000 C   0  0  0  0  0  0  0  0  0  0  0  0
   12.1188    6.3890    0.0000 F   0  0  0  0  0  0  0  0  0  0  0  0
   11.1558    4.4988    0.0000 F   0  0  0  0  0  0  0  0  0  0  0  0
   10.2287    7.3520    0.0000 F   0  0  0  0  0  0  0  0  0  0  0  0
    8.1510    6.4656    0.0000 C   0  0  0  0  0  0  0  0  0  0  0  0
  1  2  2  0
  2  3  1  0
  3  4  1  0
  4  5  2  0
  5  6  1  0
  6  7  2  0
  7  8  1  0
  8  9  1  0
  9 10  2  0
 10 11  1  0
 11 12  1  0
 12 13  2  0
 13 14  1  0
 14 15  2  0
 15 16  1  0
 16 17  1  0
 17 18  1  0
 18 19  1  0
 19 20  2  0
 20 21  1  0
 21 22  2  0
 22 23  1  0
 23 24  2  0
 16 25  2  0
  8 26  2  0
  2 27  1  0
 27 28  1  0
 28 29  2  0
 29 30  1  0
 30 31  2  0
 31 32  1  0
 32 33  1  0
 33 34  1  0
 33 35  1  0
 33 36  1  0
 32 37  2  0
 26  4  1  0
 37 28  1  0
 25  9  1  0
 15 11  1  0
 24 19  1  0
M  END
>  <Compound_ID>  (254) 
CHEMBL1081198

>  <Molecule Name>  (254) 
nan

>  <Molecular Weight>  (254) 
503.49

>  <AlogP>  (254) 
6.07

>  <Smiles>  (254) 
O=C(Nc1cccc(-c2cn3ccnc3c(NCc3ccncc3)n2)c1)Nc1cccc(C(F)(F)F)c1

>  <Standard Type>  (254) 
IC50

>  <Standard Relation>  (254) 
'='

>  <Standard Units>  (254) 
nM

>  <Standard Value>  (254) 
50000.0

>  <Assay ChEMBL ID>  (254) 
CHEMBL1109439

>  <Assay Description>  (254) 
Inhibition of Syk after 1 hr

>  <BAO Format ID>  (254) 
BAO_0000357

>  <BAO Label>  (254) 
single protein format

>  <Assay Organism>  (254) 
None

>  <Target ChEMBL ID>  (254) 
CHEMBL2599

>  <Target Name>  (254) 
Tyrosine-protein kinase SYK

>  <Target Organism>  (254) 
Homo sapiens

>  <Target Type>  (254) 
SINGLE PROTEIN

>  <Document ChEMBL ID>  (254) 
CHEMBL1153704

>  <Source Description>  (254) 
Scientific Literature

>  <Document Journal>  (254) 
Bioorg Med Chem Lett

>  <Document Year>  (254) 
2009.0

>  <Active>  (254) 
0.0

>  <bits>  (254) 
<rdkit.DataStructs.cDataStructs.ExplicitBitVect object at 0x00000193F3411000>

>  <Group>  (254) 
G2

$$$$

     RDKit          2D

 20 22  0  0  0  0  0  0  0  0999 V2000
    3.0000    0.0000    0.0000 O   0  0  0  0  0  0  0  0  0  0  0  0
    1.5000    0.0000    0.0000 C   0  0  0  0  0  0  0  0  0  0  0  0
    0.7500   -1.2990    0.0000 C   0  0  0  0  0  0  0  0  0  0  0  0
    1.5000   -2.5981    0.0000 C   0  0  0  0  0  0  0  0  0  0  0  0
    0.7500   -3.8971    0.0000 C   0  0  0  0  0  0  0  0  0  0  0  0
    1.5000   -5.1962    0.0000 C   0  0  0  0  0  0  0  0  0  0  0  0
    3.0000   -5.1962    0.0000 C   0  0  0  0  0  0  0  0  0  0  0  0
    3.7500   -6.4952    0.0000 O   0  0  0  0  0  0  0  0  0  0  0  0
    3.7500   -3.8971    0.0000 C   0  0  0  0  0  0  0  0  0  0  0  0
    3.0000   -2.5981    0.0000 C   0  0  0  0  0  0  0  0  0  0  0  0
   -0.7500   -1.2990    0.0000 C   0  0  0  0  0  0  0  0  0  0  0  0
   -1.5000    0.0000    0.0000 O   0  0  0  0  0  0  0  0  0  0  0  0
   -0.7500    1.2990    0.0000 C   0  0  0  0  0  0  0  0  0  0  0  0
   -1.5000    2.5981    0.0000 C   0  0  0  0  0  0  0  0  0  0  0  0
   -0.7500    3.8971    0.0000 C   0  0  0  0  0  0  0  0  0  0  0  0
   -1.5000    5.1962    0.0000 O   0  0  0  0  0  0  0  0  0  0  0  0
    0.7500    3.8971    0.0000 C   0  0  0  0  0  0  0  0  0  0  0  0
    1.5000    2.5981    0.0000 C   0  0  0  0  0  0  0  0  0  0  0  0
    3.0000    2.5981    0.0000 O   0  0  0  0  0  0  0  0  0  0  0  0
    0.7500    1.2990    0.0000 C   0  0  0  0  0  0  0  0  0  0  0  0
  1  2  2  0
  2  3  1  0
  3  4  1  0
  4  5  2  0
  5  6  1  0
  6  7  2  0
  7  8  1  0
  7  9  1  0
  9 10  2  0
  3 11  2  0
 11 12  1  0
 12 13  1  0
 13 14  2  0
 14 15  1  0
 15 16  1  0
 15 17  2  0
 17 18  1  0
 18 19  1  0
 18 20  2  0
 20  2  1  0
 10  4  1  0
 20 13  1  0
M  END
>  <Compound_ID>  (255) 
CHEMBL44

>  <Molecule Name>  (255) 
GENISTEIN

>  <Molecular Weight>  (255) 
270.24

>  <AlogP>  (255) 
2.58

>  <Smiles>  (255) 
O=c1c(-c2ccc(O)cc2)coc2cc(O)cc(O)c12

>  <Standard Type>  (255) 
IC50

>  <Standard Relation>  (255) 
'='

>  <Standard Units>  (255) 
nM

>  <Standard Value>  (255) 
39000.0

>  <Assay ChEMBL ID>  (255) 
CHEMBL1022010

>  <Assay Description>  (255) 
Inhibition of recombinant Syk

>  <BAO Format ID>  (255) 
BAO_0000357

>  <BAO Label>  (255) 
single protein format

>  <Assay Organism>  (255) 
None

>  <Target ChEMBL ID>  (255) 
CHEMBL2599

>  <Target Name>  (255) 
Tyrosine-protein kinase SYK

>  <Target Organism>  (255) 
Homo sapiens

>  <Target Type>  (255) 
SINGLE PROTEIN

>  <Document ChEMBL ID>  (255) 
CHEMBL1138583

>  <Source Description>  (255) 
Scientific Literature

>  <Document Journal>  (255) 
Bioorg Med Chem Lett

>  <Document Year>  (255) 
2009.0

>  <Active>  (255) 
0.0

>  <bits>  (255) 
<rdkit.DataStructs.cDataStructs.ExplicitBitVect object at 0x00000193F3410AC0>

>  <Group>  (255) 
G2

$$$$

     RDKit          2D

 29 32  0  0  0  0  0  0  0  0999 V2000
   -9.0638   -4.9905    0.0000 N   0  0  0  0  0  0  0  0  0  0  0  0
   -8.1821   -3.7770    0.0000 C   0  0  0  0  0  0  0  0  0  0  0  0
   -8.7923   -2.4067    0.0000 C   0  0  0  0  0  0  0  0  0  0  0  0
  -10.2840   -2.2499    0.0000 C   0  0  0  0  0  0  0  0  0  0  0  0
  -11.1657   -3.4634    0.0000 C   0  0  0  0  0  0  0  0  0  0  0  0
  -12.6575   -3.3066    0.0000 C   0  0  0  0  0  0  0  0  0  0  0  0
  -13.5392   -4.5201    0.0000 C   0  0  0  0  0  0  0  0  0  0  0  0
  -12.9291   -5.8905    0.0000 C   0  0  0  0  0  0  0  0  0  0  0  0
  -11.4373   -6.0472    0.0000 C   0  0  0  0  0  0  0  0  0  0  0  0
  -10.8272   -7.4176    0.0000 F   0  0  0  0  0  0  0  0  0  0  0  0
  -10.5556   -4.8337    0.0000 C   0  0  0  0  0  0  0  0  0  0  0  0
   -7.9106   -1.1931    0.0000 N   0  0  0  0  0  0  0  0  0  0  0  0
   -6.4188   -1.3499    0.0000 C   0  0  0  0  0  0  0  0  0  0  0  0
   -5.8087   -2.7203    0.0000 O   0  0  0  0  0  0  0  0  0  0  0  0
   -5.5371   -0.1364    0.0000 C   0  0  0  0  0  0  0  0  0  0  0  0
   -6.0006    1.2902    0.0000 C   0  0  0  0  0  0  0  0  0  0  0  0
   -4.7871    2.1718    0.0000 C   0  0  0  0  0  0  0  0  0  0  0  0
   -4.7871    3.6718    0.0000 Br  0  0  0  0  0  0  0  0  0  0  0  0
   -3.5736    1.2902    0.0000 C   0  0  0  0  0  0  0  0  0  0  0  0
   -2.1470    1.7537    0.0000 C   0  0  0  0  0  0  0  0  0  0  0  0
   -1.8351    3.2209    0.0000 C   0  0  0  0  0  0  0  0  0  0  0  0
   -0.4086    3.6844    0.0000 C   0  0  0  0  0  0  0  0  0  0  0  0
    0.7062    2.6807    0.0000 N   0  0  0  0  0  0  0  0  0  0  0  0
    0.3943    1.2135    0.0000 C   0  0  0  0  0  0  0  0  0  0  0  0
    1.2760    0.0000    0.0000 N   0  0  0  0  0  0  0  0  0  0  0  0
    0.3943   -1.2135    0.0000 C   0  0  0  0  0  0  0  0  0  0  0  0
   -1.0323   -0.7500    0.0000 C   0  0  0  0  0  0  0  0  0  0  0  0
   -1.0323    0.7500    0.0000 C   0  0  0  0  0  0  0  0  0  0  0  0
   -4.0371   -0.1364    0.0000 S   0  0  0  0  0  0  0  0  0  0  0  0
  1  2  1  0
  3  2  1  6
  3  4  1  0
  4  5  1  0
  5  6  2  0
  6  7  1  0
  7  8  2  0
  8  9  1  0
  9 10  1  0
  9 11  2  0
  3 12  1  0
 12 13  1  0
 13 14  2  0
 13 15  1  0
 15 16  2  0
 16 17  1  0
 17 18  1  0
 17 19  2  0
 19 20  1  0
 20 21  2  0
 21 22  1  0
 22 23  2  0
 23 24  1  0
 24 25  1  0
 25 26  1  0
 26 27  2  0
 27 28  1  0
 19 29  1  0
 11  5  1  0
 29 15  1  0
 28 20  1  0
 28 24  2  0
M  END
>  <Compound_ID>  (256) 
CHEMBL523586

>  <Molecule Name>  (256) 
nan

>  <Molecular Weight>  (256) 
473.37

>  <AlogP>  (256) 
4.49

>  <Smiles>  (256) 
NC[C@H](Cc1cccc(F)c1)NC(=O)c1cc(Br)c(-c2ccnc3[nH]ccc23)s1

>  <Standard Type>  (256) 
IC50

>  <Standard Relation>  (256) 
'='

>  <Standard Units>  (256) 
nM

>  <Standard Value>  (256) 
25000.0

>  <Assay ChEMBL ID>  (256) 
CHEMBL959257

>  <Assay Description>  (256) 
Inhibition of SYK

>  <BAO Format ID>  (256) 
BAO_0000357

>  <BAO Label>  (256) 
single protein format

>  <Assay Organism>  (256) 
None

>  <Target ChEMBL ID>  (256) 
CHEMBL2599

>  <Target Name>  (256) 
Tyrosine-protein kinase SYK

>  <Target Organism>  (256) 
Homo sapiens

>  <Target Type>  (256) 
SINGLE PROTEIN

>  <Document ChEMBL ID>  (256) 
CHEMBL1153968

>  <Source Description>  (256) 
Scientific Literature

>  <Document Journal>  (256) 
Bioorg Med Chem Lett

>  <Document Year>  (256) 
2009.0

>  <Active>  (256) 
0.0

>  <bits>  (256) 
<rdkit.DataStructs.cDataStructs.ExplicitBitVect object at 0x00000193F3410F90>

>  <Group>  (256) 
G2

$$$$

     RDKit          2D

 46 49  0  0  0  0  0  0  0  0999 V2000
    0.7500   -9.0933    0.0000 C   0  0  0  0  0  0  0  0  0  0  0  0
    1.5000   -7.7942    0.0000 C   0  0  0  0  0  0  0  0  0  0  0  0
    0.7500   -6.4952    0.0000 N   0  0  0  0  0  0  0  0  0  0  0  0
    1.5000   -5.1962    0.0000 C   0  0  0  0  0  0  0  0  0  0  0  0
    3.0000   -5.1962    0.0000 O   0  0  0  0  0  0  0  0  0  0  0  0
    0.7500   -3.8971    0.0000 C   0  0  0  0  0  0  0  0  0  0  0  0
    1.5000   -2.5981    0.0000 C   0  0  0  0  0  0  0  0  0  0  0  0
    0.7500   -1.2990    0.0000 C   0  0  0  0  0  0  0  0  0  0  0  0
    1.5000    0.0000    0.0000 C   0  0  0  0  0  0  0  0  0  0  0  0
    0.7500    1.2990    0.0000 C   0  0  0  0  0  0  0  0  0  0  0  0
   -0.7500    1.2990    0.0000 C   0  0  0  0  0  0  0  0  0  0  0  0
   -1.5000    2.5981    0.0000 O   0  0  0  0  0  0  0  0  0  0  0  0
   -0.7500    3.8971    0.0000 P   0  0  0  0  0  0  0  0  0  0  0  0
   -2.0490    4.6471    0.0000 O   0  0  0  0  0  0  0  0  0  0  0  0
    0.5490    3.1471    0.0000 O   0  0  0  0  0  0  0  0  0  0  0  0
    0.0000    5.1962    0.0000 O   0  0  0  0  0  0  0  0  0  0  0  0
   -1.5000    0.0000    0.0000 C   0  0  0  0  0  0  0  0  0  0  0  0
   -0.7500   -1.2990    0.0000 C   0  0  0  0  0  0  0  0  0  0  0  0
   -0.7500   -3.8971    0.0000 N   0  0  0  0  0  0  0  0  0  0  0  0
   -1.5000   -5.1962    0.0000 C   0  0  0  0  0  0  0  0  0  0  0  0
   -0.7500   -6.4952    0.0000 O   0  0  0  0  0  0  0  0  0  0  0  0
   -3.0000   -5.1962    0.0000 C   0  0  0  0  0  0  0  0  0  0  0  0
   -3.7500   -6.4952    0.0000 C   0  0  0  0  0  0  0  0  0  0  0  0
   -5.2500   -6.4952    0.0000 C   0  0  0  0  0  0  0  0  0  0  0  0
   -6.0000   -7.7942    0.0000 C   0  0  0  0  0  0  0  0  0  0  0  0
   -5.2500   -9.0933    0.0000 C   0  0  0  0  0  0  0  0  0  0  0  0
   -6.0000  -10.3923    0.0000 F   0  0  0  0  0  0  0  0  0  0  0  0
   -3.7500   -9.0933    0.0000 C   0  0  0  0  0  0  0  0  0  0  0  0
   -3.0000  -10.3923    0.0000 F   0  0  0  0  0  0  0  0  0  0  0  0
   -3.0000   -7.7942    0.0000 C   0  0  0  0  0  0  0  0  0  0  0  0
    3.0000   -7.7942    0.0000 C   0  0  0  0  0  0  0  0  0  0  0  0
    3.8817   -6.5807    0.0000 N   0  0  0  0  0  0  0  0  0  0  0  0
    5.3083   -7.0442    0.0000 C   0  0  0  0  0  0  0  0  0  0  0  0
    6.5218   -6.1626    0.0000 C   0  0  0  0  0  0  0  0  0  0  0  0
    7.8921   -6.7727    0.0000 C   0  0  0  0  0  0  0  0  0  0  0  0
    8.0489   -8.2644    0.0000 C   0  0  0  0  0  0  0  0  0  0  0  0
    9.4192   -8.8745    0.0000 C   0  0  0  0  0  0  0  0  0  0  0  0
   10.6327   -7.9929    0.0000 C   0  0  0  0  0  0  0  0  0  0  0  0
   12.0031   -8.6030    0.0000 C   0  0  0  0  0  0  0  0  0  0  0  0
   13.3734   -9.2131    0.0000 F   0  0  0  0  0  0  0  0  0  0  0  0
   11.3930   -9.9733    0.0000 F   0  0  0  0  0  0  0  0  0  0  0  0
   12.6132   -7.2327    0.0000 F   0  0  0  0  0  0  0  0  0  0  0  0
   10.4760   -6.5011    0.0000 C   0  0  0  0  0  0  0  0  0  0  0  0
    9.1056   -5.8910    0.0000 C   0  0  0  0  0  0  0  0  0  0  0  0
    5.3083   -8.5442    0.0000 N   0  0  0  0  0  0  0  0  0  0  0  0
    3.8817   -9.0078    0.0000 O   0  0  0  0  0  0  0  0  0  0  0  0
  2  1  1  6
  2  3  1  0
  3  4  1  0
  4  5  2  0
  4  6  1  0
  6  7  1  1
  7  8  1  0
  8  9  2  0
  9 10  1  0
 10 11  2  0
 11 12  1  0
 12 13  1  0
 13 14  2  0
 13 15  1  0
 13 16  1  0
 11 17  1  0
 17 18  2  0
  6 19  1  0
 19 20  1  0
 20 21  2  0
 20 22  1  0
 22 23  1  0
 23 24  2  0
 24 25  1  0
 25 26  2  0
 26 27  1  0
 26 28  1  0
 28 29  1  0
 28 30  2  0
  2 31  1  0
 31 32  2  0
 32 33  1  0
 33 34  1  0
 34 35  1  0
 35 36  2  0
 36 37  1  0
 37 38  2  0
 38 39  1  0
 39 40  1  0
 39 41  1  0
 39 42  1  0
 38 43  1  0
 43 44  2  0
 33 45  2  0
 45 46  1  0
 18  8  1  0
 30 23  1  0
 46 31  1  0
 44 35  1  0
M  END
>  <Compound_ID>  (257) 
CHEMBL134004

>  <Molecule Name>  (257) 
nan

>  <Molecular Weight>  (257) 
668.51

>  <AlogP>  (257) 
4.58

>  <Smiles>  (257) 
C[C@H](NC(=O)[C@H](Cc1ccc(OP(=O)(O)O)cc1)NC(=O)Cc1ccc(F)c(F)c1)c1nc(Cc2ccc(C(F)(F)F)cc2)no1

>  <Standard Type>  (257) 
IC50

>  <Standard Relation>  (257) 
'='

>  <Standard Units>  (257) 
nM

>  <Standard Value>  (257) 
397000.0

>  <Assay ChEMBL ID>  (257) 
CHEMBL816642

>  <Assay Description>  (257) 
Binding affinity against Syk protein tyrosine kinase SH2 domain

>  <BAO Format ID>  (257) 
BAO_0000357

>  <BAO Label>  (257) 
single protein format

>  <Assay Organism>  (257) 
Escherichia coli

>  <Target ChEMBL ID>  (257) 
CHEMBL2599

>  <Target Name>  (257) 
Tyrosine-protein kinase SYK

>  <Target Organism>  (257) 
Homo sapiens

>  <Target Type>  (257) 
SINGLE PROTEIN

>  <Document ChEMBL ID>  (257) 
CHEMBL1132280

>  <Source Description>  (257) 
Scientific Literature

>  <Document Journal>  (257) 
J Med Chem

>  <Document Year>  (257) 
1999.0

>  <Active>  (257) 
0.0

>  <bits>  (257) 
<rdkit.DataStructs.cDataStructs.ExplicitBitVect object at 0x00000193F3411150>

>  <Group>  (257) 
G2

$$$$

     RDKit          2D

 36 38  0  0  0  0  0  0  0  0999 V2000
   -3.0000   -5.1962    0.0000 C   0  0  0  0  0  0  0  0  0  0  0  0
   -1.5000   -5.1962    0.0000 C   0  0  0  0  0  0  0  0  0  0  0  0
   -0.7500   -6.4952    0.0000 O   0  0  0  0  0  0  0  0  0  0  0  0
   -0.7500   -3.8971    0.0000 N   0  0  0  0  0  0  0  0  0  0  0  0
    0.7500   -3.8971    0.0000 C   0  0  0  0  0  0  0  0  0  0  0  0
    1.5000   -2.5981    0.0000 C   0  0  0  0  0  0  0  0  0  0  0  0
    0.7500   -1.2990    0.0000 C   0  0  0  0  0  0  0  0  0  0  0  0
    1.5000    0.0000    0.0000 C   0  0  0  0  0  0  0  0  0  0  0  0
    0.7500    1.2990    0.0000 C   0  0  0  0  0  0  0  0  0  0  0  0
   -0.7500    1.2990    0.0000 C   0  0  0  0  0  0  0  0  0  0  0  0
   -1.5000    2.5981    0.0000 O   0  0  0  0  0  0  0  0  0  0  0  0
   -0.7500    3.8971    0.0000 P   0  0  0  0  0  0  0  0  0  0  0  0
   -2.0490    4.6471    0.0000 O   0  0  0  0  0  0  0  0  0  0  0  0
    0.5490    3.1471    0.0000 O   0  0  0  0  0  0  0  0  0  0  0  0
    0.0000    5.1962    0.0000 O   0  0  0  0  0  0  0  0  0  0  0  0
   -1.5000    0.0000    0.0000 C   0  0  0  0  0  0  0  0  0  0  0  0
   -0.7500   -1.2990    0.0000 C   0  0  0  0  0  0  0  0  0  0  0  0
    1.5000   -5.1962    0.0000 C   0  0  0  0  0  0  0  0  0  0  0  0
    3.0000   -5.1962    0.0000 O   0  0  0  0  0  0  0  0  0  0  0  0
    0.7500   -6.4952    0.0000 N   0  0  0  0  0  0  0  0  0  0  0  0
    1.5000   -7.7942    0.0000 C   0  0  0  0  0  0  0  0  0  0  0  0
    0.7500   -9.0933    0.0000 C   0  0  0  0  0  0  0  0  0  0  0  0
    3.0000   -7.7942    0.0000 C   0  0  0  0  0  0  0  0  0  0  0  0
    3.8817   -6.5807    0.0000 N   0  0  0  0  0  0  0  0  0  0  0  0
    5.3083   -7.0442    0.0000 C   0  0  0  0  0  0  0  0  0  0  0  0
    6.5218   -6.1626    0.0000 C   0  0  0  0  0  0  0  0  0  0  0  0
    7.8921   -6.7727    0.0000 C   0  0  0  0  0  0  0  0  0  0  0  0
    8.0489   -8.2644    0.0000 C   0  0  0  0  0  0  0  0  0  0  0  0
    9.4192   -8.8745    0.0000 C   0  0  0  0  0  0  0  0  0  0  0  0
   10.6327   -7.9929    0.0000 C   0  0  0  0  0  0  0  0  0  0  0  0
   12.0031   -8.6030    0.0000 I   0  0  0  0  0  0  0  0  0  0  0  0
   10.4760   -6.5011    0.0000 C   0  0  0  0  0  0  0  0  0  0  0  0
   11.6895   -5.6194    0.0000 Cl  0  0  0  0  0  0  0  0  0  0  0  0
    9.1056   -5.8910    0.0000 C   0  0  0  0  0  0  0  0  0  0  0  0
    5.3083   -8.5442    0.0000 N   0  0  0  0  0  0  0  0  0  0  0  0
    3.8817   -9.0078    0.0000 O   0  0  0  0  0  0  0  0  0  0  0  0
  1  2  1  0
  2  3  2  0
  2  4  1  0
  4  5  1  0
  5  6  1  1
  6  7  1  0
  7  8  2  0
  8  9  1  0
  9 10  2  0
 10 11  1  0
 11 12  1  0
 12 13  2  0
 12 14  1  0
 12 15  1  0
 10 16  1  0
 16 17  2  0
  5 18  1  0
 18 19  2  0
 18 20  1  0
 20 21  1  0
 21 22  1  6
 21 23  1  0
 23 24  2  0
 24 25  1  0
 25 26  1  0
 26 27  1  0
 27 28  2  0
 28 29  1  0
 29 30  2  0
 30 31  1  0
 30 32  1  0
 32 33  1  0
 32 34  2  0
 25 35  2  0
 35 36  1  0
 17  7  1  0
 36 23  1  0
 34 27  1  0
M  END
>  <Compound_ID>  (258) 
CHEMBL336644

>  <Molecule Name>  (258) 
nan

>  <Molecular Weight>  (258) 
648.78

>  <AlogP>  (258) 
3.31

>  <Smiles>  (258) 
CC(=O)N[C@@H](Cc1ccc(OP(=O)(O)O)cc1)C(=O)N[C@@H](C)c1nc(Cc2ccc(I)c(Cl)c2)no1

>  <Standard Type>  (258) 
IC50

>  <Standard Relation>  (258) 
'='

>  <Standard Units>  (258) 
nM

>  <Standard Value>  (258) 
464000.0

>  <Assay ChEMBL ID>  (258) 
CHEMBL816642

>  <Assay Description>  (258) 
Binding affinity against Syk protein tyrosine kinase SH2 domain

>  <BAO Format ID>  (258) 
BAO_0000357

>  <BAO Label>  (258) 
single protein format

>  <Assay Organism>  (258) 
Escherichia coli

>  <Target ChEMBL ID>  (258) 
CHEMBL2599

>  <Target Name>  (258) 
Tyrosine-protein kinase SYK

>  <Target Organism>  (258) 
Homo sapiens

>  <Target Type>  (258) 
SINGLE PROTEIN

>  <Document ChEMBL ID>  (258) 
CHEMBL1132280

>  <Source Description>  (258) 
Scientific Literature

>  <Document Journal>  (258) 
J Med Chem

>  <Document Year>  (258) 
1999.0

>  <Active>  (258) 
0.0

>  <bits>  (258) 
<rdkit.DataStructs.cDataStructs.ExplicitBitVect object at 0x00000193F3411690>

>  <Group>  (258) 
G2

$$$$

     RDKit          2D

 27 30  0  0  0  0  0  0  0  0999 V2000
   -4.0978   -7.7629    0.0000 C   0  0  0  0  0  0  0  0  0  0  0  0
   -4.2546   -6.2711    0.0000 C   0  0  0  0  0  0  0  0  0  0  0  0
   -3.1399   -5.2674    0.0000 C   0  0  0  0  0  0  0  0  0  0  0  0
   -3.7500   -3.8971    0.0000 C   0  0  0  0  0  0  0  0  0  0  0  0
   -3.0000   -2.5981    0.0000 N   0  0  0  0  0  0  0  0  0  0  0  0
   -1.5000   -2.5981    0.0000 C   0  0  0  0  0  0  0  0  0  0  0  0
   -0.7500   -3.8971    0.0000 N   0  0  0  0  0  0  0  0  0  0  0  0
    0.7500   -3.8971    0.0000 N   0  0  0  0  0  0  0  0  0  0  0  0
    1.5000   -5.1962    0.0000 C   0  0  0  0  0  0  0  0  0  0  0  0
    0.7500   -6.4952    0.0000 C   0  0  0  0  0  0  0  0  0  0  0  0
    3.0000   -5.1962    0.0000 C   0  0  0  0  0  0  0  0  0  0  0  0
    1.5000   -2.5981    0.0000 C   0  0  0  0  0  0  0  0  0  0  0  0
    3.0000   -2.5981    0.0000 O   0  0  0  0  0  0  0  0  0  0  0  0
    0.7500   -1.2990    0.0000 C   0  0  0  0  0  0  0  0  0  0  0  0
    1.5000    0.0000    0.0000 C   0  0  0  0  0  0  0  0  0  0  0  0
    0.7500    1.2990    0.0000 C   0  0  0  0  0  0  0  0  0  0  0  0
   -0.7500    1.2990    0.0000 C   0  0  0  0  0  0  0  0  0  0  0  0
   -1.5000    2.5981    0.0000 N   0  0  0  0  0  0  0  0  0  0  0  0
   -0.7500    3.8971    0.0000 C   0  0  0  0  0  0  0  0  0  0  0  0
   -1.5000    5.1962    0.0000 C   0  0  0  0  0  0  0  0  0  0  0  0
   -3.0000    5.1962    0.0000 O   0  0  0  0  0  0  0  0  0  0  0  0
   -3.7500    3.8971    0.0000 C   0  0  0  0  0  0  0  0  0  0  0  0
   -3.0000    2.5981    0.0000 C   0  0  0  0  0  0  0  0  0  0  0  0
   -1.5000    0.0000    0.0000 C   0  0  0  0  0  0  0  0  0  0  0  0
   -0.7500   -1.2990    0.0000 C   0  0  0  0  0  0  0  0  0  0  0  0
   -5.2418   -4.0539    0.0000 N   0  0  0  0  0  0  0  0  0  0  0  0
   -5.5537   -5.5211    0.0000 N   0  0  0  0  0  0  0  0  0  0  0  0
  1  2  1  0
  2  3  2  0
  3  4  1  0
  4  5  1  0
  5  6  1  0
  6  7  2  0
  7  8  1  0
  8  9  1  0
  9 10  1  0
  9 11  1  0
  8 12  1  0
 12 13  2  0
 12 14  1  0
 14 15  2  0
 15 16  1  0
 16 17  2  0
 17 18  1  0
 18 19  1  0
 19 20  1  0
 20 21  1  0
 21 22  1  0
 22 23  1  0
 17 24  1  0
 24 25  2  0
  4 26  2  0
 26 27  1  0
 27  2  1  0
 25  6  1  0
 25 14  1  0
 23 18  1  0
M  END
>  <Compound_ID>  (259) 
CHEMBL475014

>  <Molecule Name>  (259) 
nan

>  <Molecular Weight>  (259) 
368.44

>  <AlogP>  (259) 
2.59

>  <Smiles>  (259) 
Cc1cc(Nc2nn(C(C)C)c(=O)c3ccc(N4CCOCC4)cc23)n[nH]1

>  <Standard Type>  (259) 
IC50

>  <Standard Relation>  (259) 
'='

>  <Standard Units>  (259) 
nM

>  <Standard Value>  (259) 
36400.0

>  <Assay ChEMBL ID>  (259) 
CHEMBL1022010

>  <Assay Description>  (259) 
Inhibition of recombinant Syk

>  <BAO Format ID>  (259) 
BAO_0000357

>  <BAO Label>  (259) 
single protein format

>  <Assay Organism>  (259) 
None

>  <Target ChEMBL ID>  (259) 
CHEMBL2599

>  <Target Name>  (259) 
Tyrosine-protein kinase SYK

>  <Target Organism>  (259) 
Homo sapiens

>  <Target Type>  (259) 
SINGLE PROTEIN

>  <Document ChEMBL ID>  (259) 
CHEMBL1138583

>  <Source Description>  (259) 
Scientific Literature

>  <Document Journal>  (259) 
Bioorg Med Chem Lett

>  <Document Year>  (259) 
2009.0

>  <Active>  (259) 
0.0

>  <bits>  (259) 
<rdkit.DataStructs.cDataStructs.ExplicitBitVect object at 0x00000193F3411B60>

>  <Group>  (259) 
G2

$$$$

     RDKit          2D

 15 15  0  0  0  0  0  0  0  0999 V2000
    2.2500   -3.8971    0.0000 N   0  0  0  0  0  0  0  0  0  0  0  0
    3.0000   -2.5981    0.0000 C   0  0  0  0  0  0  0  0  0  0  0  0
    3.7500   -1.2990    0.0000 C   0  0  0  0  0  0  0  0  0  0  0  0
    3.0000    0.0000    0.0000 C   0  0  0  0  0  0  0  0  0  0  0  0
    1.5000    0.0000    0.0000 C   0  0  0  0  0  0  0  0  0  0  0  0
    0.7500   -1.2990    0.0000 C   0  0  0  0  0  0  0  0  0  0  0  0
   -0.7500   -1.2990    0.0000 C   0  0  0  0  0  0  0  0  0  0  0  0
   -1.5000    0.0000    0.0000 C   0  0  0  0  0  0  0  0  0  0  0  0
   -3.0000    0.0000    0.0000 O   0  0  0  0  0  0  0  0  0  0  0  0
   -0.7500    1.2990    0.0000 C   0  0  0  0  0  0  0  0  0  0  0  0
   -1.5000    2.5981    0.0000 O   0  0  0  0  0  0  0  0  0  0  0  0
    0.7500    1.2990    0.0000 C   0  0  0  0  0  0  0  0  0  0  0  0
    5.2500   -1.2990    0.0000 C   0  0  0  0  0  0  0  0  0  0  0  0
    6.0000   -2.5981    0.0000 N   0  0  0  0  0  0  0  0  0  0  0  0
    6.0000    0.0000    0.0000 S   0  0  0  0  0  0  0  0  0  0  0  0
  1  2  3  0
  2  3  1  0
  3  4  2  0
  4  5  1  0
  5  6  2  0
  6  7  1  0
  7  8  2  0
  8  9  1  0
  8 10  1  0
 10 11  1  0
 10 12  2  0
  3 13  1  0
 13 14  1  0
 13 15  2  0
 12  5  1  0
M  END
>  <Compound_ID>  (260) 
CHEMBL77030

>  <Molecule Name>  (260) 
TYRPHOSTIN 47

>  <Molecular Weight>  (260) 
220.25

>  <AlogP>  (260) 
1.29

>  <Smiles>  (260) 
N#C/C(=C\c1ccc(O)c(O)c1)C(N)=S

>  <Standard Type>  (260) 
IC50

>  <Standard Relation>  (260) 
'='

>  <Standard Units>  (260) 
nM

>  <Standard Value>  (260) 
38000.0

>  <Assay ChEMBL ID>  (260) 
CHEMBL1022010

>  <Assay Description>  (260) 
Inhibition of recombinant Syk

>  <BAO Format ID>  (260) 
BAO_0000357

>  <BAO Label>  (260) 
single protein format

>  <Assay Organism>  (260) 
None

>  <Target ChEMBL ID>  (260) 
CHEMBL2599

>  <Target Name>  (260) 
Tyrosine-protein kinase SYK

>  <Target Organism>  (260) 
Homo sapiens

>  <Target Type>  (260) 
SINGLE PROTEIN

>  <Document ChEMBL ID>  (260) 
CHEMBL1138583

>  <Source Description>  (260) 
Scientific Literature

>  <Document Journal>  (260) 
Bioorg Med Chem Lett

>  <Document Year>  (260) 
2009.0

>  <Active>  (260) 
0.0

>  <bits>  (260) 
<rdkit.DataStructs.cDataStructs.ExplicitBitVect object at 0x00000193F34125E0>

>  <Group>  (260) 
G2

$$$$

     RDKit          2D

 35 38  0  0  0  0  0  0  0  0999 V2000
    6.0000   -5.1962    0.0000 C   0  0  0  0  0  0  0  0  0  0  0  0
    5.2500   -3.8971    0.0000 C   0  0  0  0  0  0  0  0  0  0  0  0
    3.7500   -3.8971    0.0000 N   0  0  0  0  0  0  0  0  0  0  0  0
    3.0000   -2.5981    0.0000 C   0  0  0  0  0  0  0  0  0  0  0  0
    3.7500   -1.2990    0.0000 O   0  0  0  0  0  0  0  0  0  0  0  0
    1.5000   -2.5981    0.0000 N   0  0  0  0  0  0  0  0  0  0  0  0
    0.7500   -1.2990    0.0000 C   0  0  0  0  0  0  0  0  0  0  0  0
    1.5000    0.0000    0.0000 C   0  0  0  0  0  0  0  0  0  0  0  0
    0.7500    1.2990    0.0000 C   0  0  0  0  0  0  0  0  0  0  0  0
   -0.7500    1.2990    0.0000 C   0  0  0  0  0  0  0  0  0  0  0  0
   -1.5000    0.0000    0.0000 C   0  0  0  0  0  0  0  0  0  0  0  0
   -3.0000    0.0000    0.0000 C   0  0  0  0  0  0  0  0  0  0  0  0
   -3.7500   -1.2990    0.0000 C   0  0  0  0  0  0  0  0  0  0  0  0
   -5.2500   -1.2990    0.0000 O   0  0  0  0  0  0  0  0  0  0  0  0
   -6.0000    0.0000    0.0000 P   0  0  0  0  0  0  0  0  0  0  0  0
   -7.2990   -0.7500    0.0000 O   0  0  0  0  0  0  0  0  0  0  0  0
   -4.7010    0.7500    0.0000 O   0  0  0  0  0  0  0  0  0  0  0  0
   -6.7500    1.2990    0.0000 O   0  0  0  0  0  0  0  0  0  0  0  0
   -3.0000   -2.5981    0.0000 C   0  0  0  0  0  0  0  0  0  0  0  0
   -1.5000   -2.5981    0.0000 C   0  0  0  0  0  0  0  0  0  0  0  0
   -0.7500   -1.2990    0.0000 C   0  0  0  0  0  0  0  0  0  0  0  0
    6.0000   -2.5981    0.0000 C   0  0  0  0  0  0  0  0  0  0  0  0
    5.3899   -1.2278    0.0000 N   0  0  0  0  0  0  0  0  0  0  0  0
    6.5046   -0.2241    0.0000 C   0  0  0  0  0  0  0  0  0  0  0  0
    6.3478    1.2677    0.0000 C   0  0  0  0  0  0  0  0  0  0  0  0
    7.5613    2.1494    0.0000 C   0  0  0  0  0  0  0  0  0  0  0  0
    8.9317    1.5393    0.0000 C   0  0  0  0  0  0  0  0  0  0  0  0
   10.1452    2.4210    0.0000 C   0  0  0  0  0  0  0  0  0  0  0  0
    9.9884    3.9128    0.0000 C   0  0  0  0  0  0  0  0  0  0  0  0
   11.2019    4.7944    0.0000 Cl  0  0  0  0  0  0  0  0  0  0  0  0
    8.6181    4.5229    0.0000 C   0  0  0  0  0  0  0  0  0  0  0  0
    8.4613    6.0146    0.0000 Cl  0  0  0  0  0  0  0  0  0  0  0  0
    7.4046    3.6412    0.0000 C   0  0  0  0  0  0  0  0  0  0  0  0
    7.8037   -0.9741    0.0000 N   0  0  0  0  0  0  0  0  0  0  0  0
    7.4918   -2.4413    0.0000 O   0  0  0  0  0  0  0  0  0  0  0  0
  2  1  1  6
  2  3  1  0
  3  4  1  0
  4  5  2  0
  4  6  1  0
  6  7  1  0
  7  8  2  0
  8  9  1  0
  9 10  2  0
 10 11  1  0
 11 12  2  0
 12 13  1  0
 13 14  1  0
 14 15  1  0
 15 16  2  0
 15 17  1  0
 15 18  1  0
 13 19  2  0
 19 20  1  0
 20 21  2  0
  2 22  1  0
 22 23  2  0
 23 24  1  0
 24 25  1  0
 25 26  1  0
 26 27  2  0
 27 28  1  0
 28 29  2  0
 29 30  1  0
 29 31  1  0
 31 32  1  0
 31 33  2  0
 24 34  2  0
 34 35  1  0
 21  7  1  0
 35 22  1  0
 21 11  1  0
 33 26  1  0
M  END
>  <Compound_ID>  (261) 
CHEMBL319179

>  <Molecule Name>  (261) 
nan

>  <Molecular Weight>  (261) 
537.3

>  <AlogP>  (261) 
5.47

>  <Smiles>  (261) 
C[C@H](NC(=O)Nc1cccc2cc(OP(=O)(O)O)ccc12)c1nc(Cc2ccc(Cl)c(Cl)c2)no1

>  <Standard Type>  (261) 
IC50

>  <Standard Relation>  (261) 
'='

>  <Standard Units>  (261) 
nM

>  <Standard Value>  (261) 
310000.0

>  <Assay ChEMBL ID>  (261) 
CHEMBL814839

>  <Assay Description>  (261) 
Affinity for Syk protein tyrosine kinase

>  <BAO Format ID>  (261) 
BAO_0000357

>  <BAO Label>  (261) 
single protein format

>  <Assay Organism>  (261) 
None

>  <Target ChEMBL ID>  (261) 
CHEMBL2599

>  <Target Name>  (261) 
Tyrosine-protein kinase SYK

>  <Target Organism>  (261) 
Homo sapiens

>  <Target Type>  (261) 
SINGLE PROTEIN

>  <Document ChEMBL ID>  (261) 
CHEMBL1131855

>  <Source Description>  (261) 
Scientific Literature

>  <Document Journal>  (261) 
Bioorg Med Chem Lett

>  <Document Year>  (261) 
1999.0

>  <Active>  (261) 
0.0

>  <bits>  (261) 
<rdkit.DataStructs.cDataStructs.ExplicitBitVect object at 0x00000193F3410970>

>  <Group>  (261) 
G2

$$$$

     RDKit          2D

 25 29  0  0  0  0  0  0  0  0999 V2000
    0.7070   -8.8832    0.0000 O   0  0  0  0  0  0  0  0  0  0  0  0
    0.0969   -7.5128    0.0000 C   0  0  0  0  0  0  0  0  0  0  0  0
   -1.3703   -7.2010    0.0000 N   0  0  0  0  0  0  0  0  0  0  0  0
   -1.5271   -5.7092    0.0000 C   0  0  0  0  0  0  0  0  0  0  0  0
   -2.7406   -4.8275    0.0000 C   0  0  0  0  0  0  0  0  0  0  0  0
   -2.5838   -3.3357    0.0000 C   0  0  0  0  0  0  0  0  0  0  0  0
   -1.2135   -2.7256    0.0000 C   0  0  0  0  0  0  0  0  0  0  0  0
   -0.0000   -3.6073    0.0000 C   0  0  0  0  0  0  0  0  0  0  0  0
    1.2135   -2.7256    0.0000 O   0  0  0  0  0  0  0  0  0  0  0  0
    0.7500   -1.2990    0.0000 C   0  0  0  0  0  0  0  0  0  0  0  0
    1.5000    0.0000    0.0000 C   0  0  0  0  0  0  0  0  0  0  0  0
    0.7500    1.2990    0.0000 C   0  0  0  0  0  0  0  0  0  0  0  0
   -0.7500    1.2990    0.0000 C   0  0  0  0  0  0  0  0  0  0  0  0
   -1.5000    0.0000    0.0000 C   0  0  0  0  0  0  0  0  0  0  0  0
   -0.7500   -1.2990    0.0000 C   0  0  0  0  0  0  0  0  0  0  0  0
   -0.1568   -5.0991    0.0000 C   0  0  0  0  0  0  0  0  0  0  0  0
    0.8469   -6.2138    0.0000 C   0  0  0  0  0  0  0  0  0  0  0  0
    2.3387   -6.0570    0.0000 N   0  0  0  0  0  0  0  0  0  0  0  0
    3.2204   -7.2705    0.0000 N   0  0  0  0  0  0  0  0  0  0  0  0
    4.7121   -7.1137    0.0000 C   0  0  0  0  0  0  0  0  0  0  0  0
    5.5938   -8.3273    0.0000 C   0  0  0  0  0  0  0  0  0  0  0  0
    7.0856   -8.1705    0.0000 C   0  0  0  0  0  0  0  0  0  0  0  0
    7.6957   -6.8002    0.0000 N   0  0  0  0  0  0  0  0  0  0  0  0
    6.8140   -5.5866    0.0000 C   0  0  0  0  0  0  0  0  0  0  0  0
    5.3223   -5.7434    0.0000 C   0  0  0  0  0  0  0  0  0  0  0  0
  1  2  2  0
  2  3  1  0
  3  4  1  0
  4  5  2  0
  5  6  1  0
  6  7  2  0
  7  8  1  0
  8  9  1  0
  9 10  1  0
 10 11  2  0
 11 12  1  0
 12 13  2  0
 13 14  1  0
 14 15  2  0
  8 16  2  0
 16 17  1  0
 17 18  2  0
 18 19  1  0
 19 20  1  0
 20 21  2  0
 21 22  1  0
 22 23  2  0
 23 24  1  0
 24 25  2  0
 17  2  1  0
 25 20  1  0
 16  4  1  0
 15  7  1  0
 15 10  1  0
M  END
>  <Compound_ID>  (262) 
CHEMBL3115320

>  <Molecule Name>  (262) 
nan

>  <Molecular Weight>  (262) 
328.33

>  <AlogP>  (262) 
3.75

>  <Smiles>  (262) 
O=C1Nc2ccc3c(oc4ccccc43)c2/C1=N/Nc1ccncc1

>  <Standard Type>  (262) 
IC50

>  <Standard Relation>  (262) 
'='

>  <Standard Units>  (262) 
nM

>  <Standard Value>  (262) 
26000.0

>  <Assay ChEMBL ID>  (262) 
CHEMBL3119790

>  <Assay Description>  (262) 
Inhibition of SYK (unknown origin) by radioactive ATP method

>  <BAO Format ID>  (262) 
BAO_0000357

>  <BAO Label>  (262) 
single protein format

>  <Assay Organism>  (262) 
Homo sapiens

>  <Target ChEMBL ID>  (262) 
CHEMBL2599

>  <Target Name>  (262) 
Tyrosine-protein kinase SYK

>  <Target Organism>  (262) 
Homo sapiens

>  <Target Type>  (262) 
SINGLE PROTEIN

>  <Document ChEMBL ID>  (262) 
CHEMBL3112544

>  <Source Description>  (262) 
Scientific Literature

>  <Document Journal>  (262) 
Bioorg Med Chem Lett

>  <Document Year>  (262) 
2013.0

>  <Active>  (262) 
0.0

>  <bits>  (262) 
<rdkit.DataStructs.cDataStructs.ExplicitBitVect object at 0x00000193F3413300>

>  <Group>  (262) 
G2

$$$$

     RDKit          2D

 25 28  0  0  0  0  0  0  0  0999 V2000
   -3.8536   -0.8075    0.0000 O   0  0  0  0  0  0  0  0  0  0  0  0
   -3.8536   -2.3075    0.0000 C   0  0  0  0  0  0  0  0  0  0  0  0
   -5.0672   -3.1891    0.0000 N   0  0  0  0  0  0  0  0  0  0  0  0
   -4.6036   -4.6157    0.0000 C   0  0  0  0  0  0  0  0  0  0  0  0
   -5.4853   -5.8293    0.0000 S   0  0  0  0  0  0  0  0  0  0  0  0
   -3.1036   -4.6157    0.0000 N   0  0  0  0  0  0  0  0  0  0  0  0
   -2.6401   -3.1891    0.0000 C   0  0  0  0  0  0  0  0  0  0  0  0
   -1.2135   -2.7256    0.0000 C   0  0  0  0  0  0  0  0  0  0  0  0
   -0.0000   -3.6073    0.0000 C   0  0  0  0  0  0  0  0  0  0  0  0
    0.0000   -5.1073    0.0000 O   0  0  0  0  0  0  0  0  0  0  0  0
    1.2135   -2.7256    0.0000 N   0  0  0  0  0  0  0  0  0  0  0  0
    2.6401   -3.1891    0.0000 C   0  0  0  0  0  0  0  0  0  0  0  0
    2.9520   -4.6564    0.0000 C   0  0  0  0  0  0  0  0  0  0  0  0
    1.8373   -5.6601    0.0000 C   0  0  0  0  0  0  0  0  0  0  0  0
    2.1491   -7.1273    0.0000 C   0  0  0  0  0  0  0  0  0  0  0  0
    3.5757   -7.5908    0.0000 C   0  0  0  0  0  0  0  0  0  0  0  0
    4.6904   -6.5871    0.0000 C   0  0  0  0  0  0  0  0  0  0  0  0
    4.3786   -5.1199    0.0000 C   0  0  0  0  0  0  0  0  0  0  0  0
    5.4933   -4.1162    0.0000 Cl  0  0  0  0  0  0  0  0  0  0  0  0
    0.7500   -1.2990    0.0000 C   0  0  0  0  0  0  0  0  0  0  0  0
    1.5000    0.0000    0.0000 C   0  0  0  0  0  0  0  0  0  0  0  0
    0.7500    1.2990    0.0000 C   0  0  0  0  0  0  0  0  0  0  0  0
   -0.7500    1.2990    0.0000 C   0  0  0  0  0  0  0  0  0  0  0  0
   -1.5000    0.0000    0.0000 C   0  0  0  0  0  0  0  0  0  0  0  0
   -0.7500   -1.2990    0.0000 C   0  0  0  0  0  0  0  0  0  0  0  0
  1  2  2  0
  2  3  1  0
  3  4  1  0
  4  5  2  0
  4  6  1  0
  6  7  1  0
  7  8  2  0
  8  9  1  0
  9 10  2  0
  9 11  1  0
 11 12  1  0
 12 13  1  0
 13 14  2  0
 14 15  1  0
 15 16  2  0
 16 17  1  0
 17 18  2  0
 18 19  1  0
 11 20  1  0
 20 21  2  0
 21 22  1  0
 22 23  2  0
 23 24  1  0
 24 25  2  0
  7  2  1  0
 25  8  1  0
 18 13  1  0
 25 20  1  0
M  END
>  <Compound_ID>  (263) 
CHEMBL3115319

>  <Molecule Name>  (263) 
nan

>  <Molecular Weight>  (263) 
369.83

>  <AlogP>  (263) 
2.60

>  <Smiles>  (263) 
O=C1NC(=S)N/C1=C1\C(=O)N(Cc2ccccc2Cl)c2ccccc21

>  <Standard Type>  (263) 
IC50

>  <Standard Relation>  (263) 
'='

>  <Standard Units>  (263) 
nM

>  <Standard Value>  (263) 
168000.0

>  <Assay ChEMBL ID>  (263) 
CHEMBL3119790

>  <Assay Description>  (263) 
Inhibition of SYK (unknown origin) by radioactive ATP method

>  <BAO Format ID>  (263) 
BAO_0000357

>  <BAO Label>  (263) 
single protein format

>  <Assay Organism>  (263) 
Homo sapiens

>  <Target ChEMBL ID>  (263) 
CHEMBL2599

>  <Target Name>  (263) 
Tyrosine-protein kinase SYK

>  <Target Organism>  (263) 
Homo sapiens

>  <Target Type>  (263) 
SINGLE PROTEIN

>  <Document ChEMBL ID>  (263) 
CHEMBL3112544

>  <Source Description>  (263) 
Scientific Literature

>  <Document Journal>  (263) 
Bioorg Med Chem Lett

>  <Document Year>  (263) 
2013.0

>  <Active>  (263) 
0.0

>  <bits>  (263) 
<rdkit.DataStructs.cDataStructs.ExplicitBitVect object at 0x00000193F3413D80>

>  <Group>  (263) 
G2

$$$$

     RDKit          2D

 26 30  0  0  0  0  0  0  0  0999 V2000
   -0.0000   -5.1073    0.0000 O   0  0  0  0  0  0  0  0  0  0  0  0
   -0.0000   -3.6073    0.0000 C   0  0  0  0  0  0  0  0  0  0  0  0
    1.2135   -2.7256    0.0000 N   0  0  0  0  0  0  0  0  0  0  0  0
    0.7500   -1.2990    0.0000 C   0  0  0  0  0  0  0  0  0  0  0  0
    1.5000    0.0000    0.0000 C   0  0  0  0  0  0  0  0  0  0  0  0
    0.7500    1.2990    0.0000 C   0  0  0  0  0  0  0  0  0  0  0  0
   -0.7500    1.2990    0.0000 C   0  0  0  0  0  0  0  0  0  0  0  0
   -1.5000    0.0000    0.0000 C   0  0  0  0  0  0  0  0  0  0  0  0
   -0.7500   -1.2990    0.0000 C   0  0  0  0  0  0  0  0  0  0  0  0
   -1.2135   -2.7256    0.0000 C   0  0  0  0  0  0  0  0  0  0  0  0
   -2.6401   -3.1891    0.0000 C   0  0  0  0  0  0  0  0  0  0  0  0
   -3.7548   -2.1855    0.0000 C   0  0  0  0  0  0  0  0  0  0  0  0
   -3.4430   -0.7182    0.0000 C   0  0  0  0  0  0  0  0  0  0  0  0
   -4.5577    0.2855    0.0000 C   0  0  0  0  0  0  0  0  0  0  0  0
   -5.9843   -0.1781    0.0000 C   0  0  0  0  0  0  0  0  0  0  0  0
   -6.2961   -1.6453    0.0000 C   0  0  0  0  0  0  0  0  0  0  0  0
   -5.1814   -2.6490    0.0000 C   0  0  0  0  0  0  0  0  0  0  0  0
   -2.9520   -4.6564    0.0000 C   0  0  0  0  0  0  0  0  0  0  0  0
   -4.3223   -5.2665    0.0000 N   0  0  0  0  0  0  0  0  0  0  0  0
   -4.1655   -6.7583    0.0000 C   0  0  0  0  0  0  0  0  0  0  0  0
   -5.1692   -7.8730    0.0000 C   0  0  0  0  0  0  0  0  0  0  0  0
   -4.7057   -9.2996    0.0000 C   0  0  0  0  0  0  0  0  0  0  0  0
   -3.2385   -9.6114    0.0000 C   0  0  0  0  0  0  0  0  0  0  0  0
   -2.2348   -8.4967    0.0000 C   0  0  0  0  0  0  0  0  0  0  0  0
   -2.6983   -7.0701    0.0000 C   0  0  0  0  0  0  0  0  0  0  0  0
   -1.9483   -5.7711    0.0000 N   0  0  0  0  0  0  0  0  0  0  0  0
  1  2  2  0
  2  3  1  0
  3  4  1  0
  4  5  2  0
  5  6  1  0
  6  7  2  0
  7  8  1  0
  8  9  2  0
  9 10  1  0
 10 11  2  0
 11 12  1  0
 12 13  2  0
 13 14  1  0
 14 15  2  0
 15 16  1  0
 16 17  2  0
 11 18  1  0
 18 19  2  0
 19 20  1  0
 20 21  2  0
 21 22  1  0
 22 23  2  0
 23 24  1  0
 24 25  2  0
 25 26  1  0
 10  2  1  0
 17 12  1  0
 26 18  1  0
  9  4  1  0
 25 20  1  0
M  END
>  <Compound_ID>  (264) 
CHEMBL3115321

>  <Molecule Name>  (264) 
nan

>  <Molecular Weight>  (264) 
337.38

>  <AlogP>  (264) 
4.47

>  <Smiles>  (264) 
O=C1Nc2ccccc2/C1=C(\c1ccccc1)c1nc2ccccc2[nH]1

>  <Standard Type>  (264) 
IC50

>  <Standard Relation>  (264) 
'='

>  <Standard Units>  (264) 
nM

>  <Standard Value>  (264) 
40000.0

>  <Assay ChEMBL ID>  (264) 
CHEMBL3119790

>  <Assay Description>  (264) 
Inhibition of SYK (unknown origin) by radioactive ATP method

>  <BAO Format ID>  (264) 
BAO_0000357

>  <BAO Label>  (264) 
single protein format

>  <Assay Organism>  (264) 
Homo sapiens

>  <Target ChEMBL ID>  (264) 
CHEMBL2599

>  <Target Name>  (264) 
Tyrosine-protein kinase SYK

>  <Target Organism>  (264) 
Homo sapiens

>  <Target Type>  (264) 
SINGLE PROTEIN

>  <Document ChEMBL ID>  (264) 
CHEMBL3112544

>  <Source Description>  (264) 
Scientific Literature

>  <Document Journal>  (264) 
Bioorg Med Chem Lett

>  <Document Year>  (264) 
2013.0

>  <Active>  (264) 
0.0

>  <bits>  (264) 
<rdkit.DataStructs.cDataStructs.ExplicitBitVect object at 0x00000193F34121F0>

>  <Group>  (264) 
G2

$$$$

     RDKit          2D

 45 48  0  0  0  0  0  0  0  0999 V2000
   -3.0000   -5.1962    0.0000 C   0  0  0  0  0  0  0  0  0  0  0  0
   -1.5000   -5.1962    0.0000 C   0  0  0  0  0  0  0  0  0  0  0  0
   -0.7500   -6.4952    0.0000 O   0  0  0  0  0  0  0  0  0  0  0  0
   -0.7500   -3.8971    0.0000 N   0  0  0  0  0  0  0  0  0  0  0  0
    0.7500   -3.8971    0.0000 C   0  0  0  0  0  0  0  0  0  0  0  0
    1.5000   -2.5981    0.0000 C   0  0  0  0  0  0  0  0  0  0  0  0
    0.7500   -1.2990    0.0000 C   0  0  0  0  0  0  0  0  0  0  0  0
    1.5000    0.0000    0.0000 C   0  0  0  0  0  0  0  0  0  0  0  0
    0.7500    1.2990    0.0000 C   0  0  0  0  0  0  0  0  0  0  0  0
   -0.7500    1.2990    0.0000 C   0  0  0  0  0  0  0  0  0  0  0  0
   -1.5000    2.5981    0.0000 O   0  0  0  0  0  0  0  0  0  0  0  0
   -0.7500    3.8971    0.0000 P   0  0  0  0  0  0  0  0  0  0  0  0
   -2.0490    4.6471    0.0000 O   0  0  0  0  0  0  0  0  0  0  0  0
    0.5490    3.1471    0.0000 O   0  0  0  0  0  0  0  0  0  0  0  0
    0.0000    5.1962    0.0000 O   0  0  0  0  0  0  0  0  0  0  0  0
   -1.5000    0.0000    0.0000 C   0  0  0  0  0  0  0  0  0  0  0  0
   -0.7500   -1.2990    0.0000 C   0  0  0  0  0  0  0  0  0  0  0  0
    1.5000   -5.1962    0.0000 C   0  0  0  0  0  0  0  0  0  0  0  0
    3.0000   -5.1962    0.0000 O   0  0  0  0  0  0  0  0  0  0  0  0
    0.7500   -6.4952    0.0000 N   0  0  0  0  0  0  0  0  0  0  0  0
    1.5000   -7.7942    0.0000 C   0  0  0  0  0  0  0  0  0  0  0  0
    0.7500   -9.0933    0.0000 C   0  0  0  0  0  0  0  0  0  0  0  0
    1.5000  -10.3923    0.0000 C   0  0  0  0  0  0  0  0  0  0  0  0
    0.7500  -11.6913    0.0000 C   0  0  0  0  0  0  0  0  0  0  0  0
   -0.7500  -11.6913    0.0000 C   0  0  0  0  0  0  0  0  0  0  0  0
   -1.5000  -12.9904    0.0000 C   0  0  0  0  0  0  0  0  0  0  0  0
   -0.7500  -14.2894    0.0000 C   0  0  0  0  0  0  0  0  0  0  0  0
    0.7500  -14.2894    0.0000 C   0  0  0  0  0  0  0  0  0  0  0  0
    1.5000  -12.9904    0.0000 C   0  0  0  0  0  0  0  0  0  0  0  0
    3.0000   -7.7942    0.0000 C   0  0  0  0  0  0  0  0  0  0  0  0
    3.8817   -6.5807    0.0000 N   0  0  0  0  0  0  0  0  0  0  0  0
    5.3083   -7.0442    0.0000 C   0  0  0  0  0  0  0  0  0  0  0  0
    6.5218   -6.1626    0.0000 C   0  0  0  0  0  0  0  0  0  0  0  0
    7.8921   -6.7727    0.0000 C   0  0  0  0  0  0  0  0  0  0  0  0
    8.0489   -8.2644    0.0000 C   0  0  0  0  0  0  0  0  0  0  0  0
    9.4192   -8.8745    0.0000 C   0  0  0  0  0  0  0  0  0  0  0  0
   10.6327   -7.9929    0.0000 C   0  0  0  0  0  0  0  0  0  0  0  0
   12.0031   -8.6030    0.0000 C   0  0  0  0  0  0  0  0  0  0  0  0
   13.3734   -9.2131    0.0000 F   0  0  0  0  0  0  0  0  0  0  0  0
   11.3930   -9.9733    0.0000 F   0  0  0  0  0  0  0  0  0  0  0  0
   12.6132   -7.2327    0.0000 F   0  0  0  0  0  0  0  0  0  0  0  0
   10.4760   -6.5011    0.0000 C   0  0  0  0  0  0  0  0  0  0  0  0
    9.1056   -5.8910    0.0000 C   0  0  0  0  0  0  0  0  0  0  0  0
    5.3083   -8.5442    0.0000 N   0  0  0  0  0  0  0  0  0  0  0  0
    3.8817   -9.0078    0.0000 O   0  0  0  0  0  0  0  0  0  0  0  0
  1  2  1  0
  2  3  2  0
  2  4  1  0
  4  5  1  0
  5  6  1  1
  6  7  1  0
  7  8  2  0
  8  9  1  0
  9 10  2  0
 10 11  1  0
 11 12  1  0
 12 13  2  0
 12 14  1  0
 12 15  1  0
 10 16  1  0
 16 17  2  0
  5 18  1  0
 18 19  2  0
 18 20  1  0
 20 21  1  0
 21 22  1  6
 22 23  1  0
 23 24  1  0
 24 25  2  0
 25 26  1  0
 26 27  2  0
 27 28  1  0
 28 29  2  0
 21 30  1  0
 30 31  2  0
 31 32  1  0
 32 33  1  0
 33 34  1  0
 34 35  2  0
 35 36  1  0
 36 37  2  0
 37 38  1  0
 38 39  1  0
 38 40  1  0
 38 41  1  0
 37 42  1  0
 42 43  2  0
 32 44  2  0
 44 45  1  0
 17  7  1  0
 29 24  1  0
 45 30  1  0
 43 34  1  0
M  END
>  <Compound_ID>  (265) 
CHEMBL337253

>  <Molecule Name>  (265) 
nan

>  <Molecular Weight>  (265) 
646.56

>  <AlogP>  (265) 
4.69

>  <Smiles>  (265) 
CC(=O)N[C@@H](Cc1ccc(OP(=O)(O)O)cc1)C(=O)N[C@@H](CCc1ccccc1)c1nc(Cc2ccc(C(F)(F)F)cc2)no1

>  <Standard Type>  (265) 
IC50

>  <Standard Relation>  (265) 
'='

>  <Standard Units>  (265) 
nM

>  <Standard Value>  (265) 
323000.0

>  <Assay ChEMBL ID>  (265) 
CHEMBL816642

>  <Assay Description>  (265) 
Binding affinity against Syk protein tyrosine kinase SH2 domain

>  <BAO Format ID>  (265) 
BAO_0000357

>  <BAO Label>  (265) 
single protein format

>  <Assay Organism>  (265) 
Escherichia coli

>  <Target ChEMBL ID>  (265) 
CHEMBL2599

>  <Target Name>  (265) 
Tyrosine-protein kinase SYK

>  <Target Organism>  (265) 
Homo sapiens

>  <Target Type>  (265) 
SINGLE PROTEIN

>  <Document ChEMBL ID>  (265) 
CHEMBL1132280

>  <Source Description>  (265) 
Scientific Literature

>  <Document Journal>  (265) 
J Med Chem

>  <Document Year>  (265) 
1999.0

>  <Active>  (265) 
0.0

>  <bits>  (265) 
<rdkit.DataStructs.cDataStructs.ExplicitBitVect object at 0x00000193F3412810>

>  <Group>  (265) 
G2

$$$$

     RDKit          2D

 25 28  0  0  0  0  0  0  0  0999 V2000
    8.7849   -9.2606    0.0000 C   0  0  0  0  0  0  0  0  0  0  0  0
    7.4146   -8.6505    0.0000 C   0  0  0  0  0  0  0  0  0  0  0  0
    6.2011   -9.5322    0.0000 C   0  0  0  0  0  0  0  0  0  0  0  0
    4.8308   -8.9221    0.0000 C   0  0  0  0  0  0  0  0  0  0  0  0
    4.6740   -7.4303    0.0000 C   0  0  0  0  0  0  0  0  0  0  0  0
    3.3037   -6.8202    0.0000 N   0  0  0  0  0  0  0  0  0  0  0  0
    2.0046   -7.5702    0.0000 C   0  0  0  0  0  0  0  0  0  0  0  0
    0.8899   -6.5665    0.0000 C   0  0  0  0  0  0  0  0  0  0  0  0
   -0.5773   -6.8783    0.0000 O   0  0  0  0  0  0  0  0  0  0  0  0
    1.5000   -5.1962    0.0000 C   0  0  0  0  0  0  0  0  0  0  0  0
    0.7500   -3.8971    0.0000 C   0  0  0  0  0  0  0  0  0  0  0  0
    1.5000   -2.5981    0.0000 N   0  0  0  0  0  0  0  0  0  0  0  0
    0.7500   -1.2990    0.0000 C   0  0  0  0  0  0  0  0  0  0  0  0
    1.5000    0.0000    0.0000 C   0  0  0  0  0  0  0  0  0  0  0  0
    0.7500    1.2990    0.0000 C   0  0  0  0  0  0  0  0  0  0  0  0
   -0.7500    1.2990    0.0000 C   0  0  0  0  0  0  0  0  0  0  0  0
   -1.5000    0.0000    0.0000 C   0  0  0  0  0  0  0  0  0  0  0  0
   -0.7500   -1.2990    0.0000 C   0  0  0  0  0  0  0  0  0  0  0  0
   -1.5000   -2.5981    0.0000 C   0  0  0  0  0  0  0  0  0  0  0  0
   -3.0000   -2.5981    0.0000 O   0  0  0  0  0  0  0  0  0  0  0  0
   -0.7500   -3.8971    0.0000 N   0  0  0  0  0  0  0  0  0  0  0  0
    2.9918   -5.3529    0.0000 C   0  0  0  0  0  0  0  0  0  0  0  0
    3.9955   -4.2382    0.0000 N   0  0  0  0  0  0  0  0  0  0  0  0
    5.8875   -6.5486    0.0000 C   0  0  0  0  0  0  0  0  0  0  0  0
    7.2578   -7.1587    0.0000 C   0  0  0  0  0  0  0  0  0  0  0  0
  1  2  1  0
  2  3  2  0
  3  4  1  0
  4  5  2  0
  5  6  1  0
  6  7  1  0
  7  8  1  0
  8  9  2  0
  8 10  1  0
 10 11  1  0
 11 12  2  0
 12 13  1  0
 13 14  2  0
 14 15  1  0
 15 16  2  0
 16 17  1  0
 17 18  2  0
 18 19  1  0
 19 20  2  0
 19 21  1  0
 10 22  2  0
 22 23  1  0
  5 24  1  0
 24 25  2  0
 25  2  1  0
 22  6  1  0
 21 11  1  0
 18 13  1  0
M  END
>  <Compound_ID>  (266) 
CHEMBL4062804

>  <Molecule Name>  (266) 
nan

>  <Molecular Weight>  (266) 
332.36

>  <AlogP>  (266) 
1.95

>  <Smiles>  (266) 
Cc1ccc(N2CC(=O)C(c3nc4ccccc4c(=O)[nH]3)=C2N)cc1

>  <Standard Type>  (266) 
IC50

>  <Standard Relation>  (266) 
'='

>  <Standard Units>  (266) 
nM

>  <Standard Value>  (266) 
17000.0

>  <Assay ChEMBL ID>  (266) 
CHEMBL4010460

>  <Assay Description>  (266) 
Inhibition of SYK (unknown origin) using FAM-labeled peptide as substrate preincubated for 10 mins followed by substrate addition measured after 25 mins

>  <BAO Format ID>  (266) 
BAO_0000357

>  <BAO Label>  (266) 
single protein format

>  <Assay Organism>  (266) 
Homo sapiens

>  <Target ChEMBL ID>  (266) 
CHEMBL2599

>  <Target Name>  (266) 
Tyrosine-protein kinase SYK

>  <Target Organism>  (266) 
Homo sapiens

>  <Target Type>  (266) 
SINGLE PROTEIN

>  <Document ChEMBL ID>  (266) 
CHEMBL4007463

>  <Source Description>  (266) 
Scientific Literature

>  <Document Journal>  (266) 
Bioorg Med Chem Lett

>  <Document Year>  (266) 
2017.0

>  <Active>  (266) 
0.0

>  <bits>  (266) 
<rdkit.DataStructs.cDataStructs.ExplicitBitVect object at 0x00000193F3410E40>

>  <Group>  (266) 
G2

$$$$

     RDKit          2D

 26 29  0  0  0  0  0  0  0  0999 V2000
   -8.0346   -3.5760    0.0000 O   0  0  0  0  0  0  0  0  0  0  0  0
   -7.7227   -2.1088    0.0000 C   0  0  0  0  0  0  0  0  0  0  0  0
   -8.8374   -1.1051    0.0000 O   0  0  0  0  0  0  0  0  0  0  0  0
   -6.2961   -1.6453    0.0000 C   0  0  0  0  0  0  0  0  0  0  0  0
   -5.9843   -0.1781    0.0000 C   0  0  0  0  0  0  0  0  0  0  0  0
   -4.5577    0.2855    0.0000 C   0  0  0  0  0  0  0  0  0  0  0  0
   -3.4430   -0.7182    0.0000 C   0  0  0  0  0  0  0  0  0  0  0  0
   -3.7548   -2.1855    0.0000 C   0  0  0  0  0  0  0  0  0  0  0  0
   -2.6401   -3.1891    0.0000 N   0  0  0  0  0  0  0  0  0  0  0  0
   -1.2135   -2.7256    0.0000 C   0  0  0  0  0  0  0  0  0  0  0  0
   -0.0000   -3.6073    0.0000 C   0  0  0  0  0  0  0  0  0  0  0  0
   -0.0000   -5.1073    0.0000 C   0  0  0  0  0  0  0  0  0  0  0  0
   -1.2990   -5.8573    0.0000 C   0  0  0  0  0  0  0  0  0  0  0  0
   -1.2990   -7.3573    0.0000 C   0  0  0  0  0  0  0  0  0  0  0  0
   -0.0000   -8.1073    0.0000 C   0  0  0  0  0  0  0  0  0  0  0  0
    1.2990   -7.3573    0.0000 C   0  0  0  0  0  0  0  0  0  0  0  0
    2.5981   -8.1073    0.0000 O   0  0  0  0  0  0  0  0  0  0  0  0
    1.2990   -5.8573    0.0000 C   0  0  0  0  0  0  0  0  0  0  0  0
    1.2135   -2.7256    0.0000 N   0  0  0  0  0  0  0  0  0  0  0  0
    0.7500   -1.2990    0.0000 C   0  0  0  0  0  0  0  0  0  0  0  0
    1.5000    0.0000    0.0000 C   0  0  0  0  0  0  0  0  0  0  0  0
    0.7500    1.2990    0.0000 N   0  0  0  0  0  0  0  0  0  0  0  0
   -0.7500    1.2990    0.0000 C   0  0  0  0  0  0  0  0  0  0  0  0
   -1.5000    0.0000    0.0000 C   0  0  0  0  0  0  0  0  0  0  0  0
   -0.7500   -1.2990    0.0000 N   0  0  0  0  0  0  0  0  0  0  0  0
   -5.1814   -2.6490    0.0000 C   0  0  0  0  0  0  0  0  0  0  0  0
  1  2  2  0
  2  3  1  0
  2  4  1  0
  4  5  2  0
  5  6  1  0
  6  7  2  0
  7  8  1  0
  8  9  1  0
  9 10  1  0
 10 11  2  0
 11 12  1  0
 12 13  2  0
 13 14  1  0
 14 15  2  0
 15 16  1  0
 16 17  1  0
 16 18  2  0
 11 19  1  0
 19 20  2  0
 20 21  1  0
 21 22  2  0
 22 23  1  0
 23 24  2  0
 24 25  1  0
  8 26  2  0
 26  4  1  0
 25 10  1  0
 18 12  1  0
 25 20  1  0
M  END
>  <Compound_ID>  (267) 
CHEMBL4099920

>  <Molecule Name>  (267) 
nan

>  <Molecular Weight>  (267) 
346.35

>  <AlogP>  (267) 
3.54

>  <Smiles>  (267) 
O=C(O)c1cccc(Nc2c(-c3cccc(O)c3)nc3cnccn23)c1

>  <Standard Type>  (267) 
IC50

>  <Standard Relation>  (267) 
'='

>  <Standard Units>  (267) 
nM

>  <Standard Value>  (267) 
30000.0

>  <Assay ChEMBL ID>  (267) 
CHEMBL4010460

>  <Assay Description>  (267) 
Inhibition of SYK (unknown origin) using FAM-labeled peptide as substrate preincubated for 10 mins followed by substrate addition measured after 25 mins

>  <BAO Format ID>  (267) 
BAO_0000357

>  <BAO Label>  (267) 
single protein format

>  <Assay Organism>  (267) 
Homo sapiens

>  <Target ChEMBL ID>  (267) 
CHEMBL2599

>  <Target Name>  (267) 
Tyrosine-protein kinase SYK

>  <Target Organism>  (267) 
Homo sapiens

>  <Target Type>  (267) 
SINGLE PROTEIN

>  <Document ChEMBL ID>  (267) 
CHEMBL4007463

>  <Source Description>  (267) 
Scientific Literature

>  <Document Journal>  (267) 
Bioorg Med Chem Lett

>  <Document Year>  (267) 
2017.0

>  <Active>  (267) 
0.0

>  <bits>  (267) 
<rdkit.DataStructs.cDataStructs.ExplicitBitVect object at 0x00000193F34114D0>

>  <Group>  (267) 
G2

$$$$

     RDKit          2D

 24 26  0  0  0  0  0  0  0  0999 V2000
   -4.0978   -7.7629    0.0000 C   0  0  0  0  0  0  0  0  0  0  0  0
   -4.2546   -6.2711    0.0000 C   0  0  0  0  0  0  0  0  0  0  0  0
   -3.1399   -5.2674    0.0000 C   0  0  0  0  0  0  0  0  0  0  0  0
   -3.7500   -3.8971    0.0000 C   0  0  0  0  0  0  0  0  0  0  0  0
   -3.0000   -2.5981    0.0000 N   0  0  0  0  0  0  0  0  0  0  0  0
   -1.5000   -2.5981    0.0000 C   0  0  0  0  0  0  0  0  0  0  0  0
   -0.7500   -3.8971    0.0000 N   0  0  0  0  0  0  0  0  0  0  0  0
    0.7500   -3.8971    0.0000 N   0  0  0  0  0  0  0  0  0  0  0  0
    1.5000   -5.1962    0.0000 C   0  0  0  0  0  0  0  0  0  0  0  0
    0.7500   -6.4952    0.0000 C   0  0  0  0  0  0  0  0  0  0  0  0
    3.0000   -5.1962    0.0000 C   0  0  0  0  0  0  0  0  0  0  0  0
    1.5000   -2.5981    0.0000 C   0  0  0  0  0  0  0  0  0  0  0  0
    3.0000   -2.5981    0.0000 O   0  0  0  0  0  0  0  0  0  0  0  0
    0.7500   -1.2990    0.0000 C   0  0  0  0  0  0  0  0  0  0  0  0
    1.5000    0.0000    0.0000 C   0  0  0  0  0  0  0  0  0  0  0  0
    0.7500    1.2990    0.0000 C   0  0  0  0  0  0  0  0  0  0  0  0
   -0.7500    1.2990    0.0000 C   0  0  0  0  0  0  0  0  0  0  0  0
   -1.5000    2.5981    0.0000 N   0  0  0  0  0  0  0  0  0  0  0  0
   -0.7500    3.8971    0.0000 C   0  0  0  0  0  0  0  0  0  0  0  0
   -3.0000    2.5981    0.0000 C   0  0  0  0  0  0  0  0  0  0  0  0
   -1.5000    0.0000    0.0000 C   0  0  0  0  0  0  0  0  0  0  0  0
   -0.7500   -1.2990    0.0000 C   0  0  0  0  0  0  0  0  0  0  0  0
   -5.2418   -4.0539    0.0000 N   0  0  0  0  0  0  0  0  0  0  0  0
   -5.5537   -5.5211    0.0000 N   0  0  0  0  0  0  0  0  0  0  0  0
  1  2  1  0
  2  3  2  0
  3  4  1  0
  4  5  1  0
  5  6  1  0
  6  7  2  0
  7  8  1  0
  8  9  1  0
  9 10  1  0
  9 11  1  0
  8 12  1  0
 12 13  2  0
 12 14  1  0
 14 15  2  0
 15 16  1  0
 16 17  2  0
 17 18  1  0
 18 19  1  0
 18 20  1  0
 17 21  1  0
 21 22  2  0
  4 23  2  0
 23 24  1  0
 24  2  1  0
 22  6  1  0
 22 14  1  0
M  END
>  <Compound_ID>  (268) 
CHEMBL512362

>  <Molecule Name>  (268) 
nan

>  <Molecular Weight>  (268) 
326.4

>  <AlogP>  (268) 
2.82

>  <Smiles>  (268) 
Cc1cc(Nc2nn(C(C)C)c(=O)c3ccc(N(C)C)cc23)n[nH]1

>  <Standard Type>  (268) 
IC50

>  <Standard Relation>  (268) 
'='

>  <Standard Units>  (268) 
nM

>  <Standard Value>  (268) 
37000.0

>  <Assay ChEMBL ID>  (268) 
CHEMBL1022010

>  <Assay Description>  (268) 
Inhibition of recombinant Syk

>  <BAO Format ID>  (268) 
BAO_0000357

>  <BAO Label>  (268) 
single protein format

>  <Assay Organism>  (268) 
None

>  <Target ChEMBL ID>  (268) 
CHEMBL2599

>  <Target Name>  (268) 
Tyrosine-protein kinase SYK

>  <Target Organism>  (268) 
Homo sapiens

>  <Target Type>  (268) 
SINGLE PROTEIN

>  <Document ChEMBL ID>  (268) 
CHEMBL1138583

>  <Source Description>  (268) 
Scientific Literature

>  <Document Journal>  (268) 
Bioorg Med Chem Lett

>  <Document Year>  (268) 
2009.0

>  <Active>  (268) 
0.0

>  <bits>  (268) 
<rdkit.DataStructs.cDataStructs.ExplicitBitVect object at 0x00000193F3410190>

>  <Group>  (268) 
G2

$$$$

     RDKit          2D

 24 26  0  0  0  0  0  0  0  0999 V2000
    3.3802    9.0132    0.0000 C   0  0  0  0  0  0  0  0  0  0  0  0
    3.0684    7.5459    0.0000 C   0  0  0  0  0  0  0  0  0  0  0  0
    4.1831    6.5422    0.0000 C   0  0  0  0  0  0  0  0  0  0  0  0
    3.8712    5.0750    0.0000 C   0  0  0  0  0  0  0  0  0  0  0  0
    2.4446    4.6115    0.0000 C   0  0  0  0  0  0  0  0  0  0  0  0
    2.1328    3.1443    0.0000 N   0  0  0  0  0  0  0  0  0  0  0  0
    0.7062    2.6807    0.0000 C   0  0  0  0  0  0  0  0  0  0  0  0
   -0.4086    3.6844    0.0000 N   0  0  0  0  0  0  0  0  0  0  0  0
   -1.8351    3.2209    0.0000 C   0  0  0  0  0  0  0  0  0  0  0  0
   -2.9499    4.2246    0.0000 N   0  0  0  0  0  0  0  0  0  0  0  0
   -2.6380    5.6918    0.0000 C   0  0  0  0  0  0  0  0  0  0  0  0
   -3.7527    6.6955    0.0000 C   0  0  0  0  0  0  0  0  0  0  0  0
   -3.4408    8.1628    0.0000 C   0  0  0  0  0  0  0  0  0  0  0  0
   -4.5556    9.1664    0.0000 O   0  0  0  0  0  0  0  0  0  0  0  0
   -2.1470    1.7537    0.0000 N   0  0  0  0  0  0  0  0  0  0  0  0
   -1.0323    0.7500    0.0000 C   0  0  0  0  0  0  0  0  0  0  0  0
    0.3943    1.2135    0.0000 C   0  0  0  0  0  0  0  0  0  0  0  0
    1.2760    0.0000    0.0000 C   0  0  0  0  0  0  0  0  0  0  0  0
    0.3943   -1.2135    0.0000 N   0  0  0  0  0  0  0  0  0  0  0  0
   -1.0323   -0.7500    0.0000 N   0  0  0  0  0  0  0  0  0  0  0  0
   -2.2458   -1.6317    0.0000 C   0  0  0  0  0  0  0  0  0  0  0  0
    1.3299    5.6152    0.0000 C   0  0  0  0  0  0  0  0  0  0  0  0
    1.6418    7.0824    0.0000 C   0  0  0  0  0  0  0  0  0  0  0  0
    0.5271    8.0861    0.0000 Cl  0  0  0  0  0  0  0  0  0  0  0  0
  1  2  1  0
  2  3  2  0
  3  4  1  0
  4  5  2  0
  5  6  1  0
  6  7  1  0
  7  8  2  0
  8  9  1  0
  9 10  1  0
 10 11  1  0
 11 12  1  0
 12 13  1  0
 13 14  1  0
  9 15  2  0
 15 16  1  0
 16 17  2  0
 17 18  1  0
 18 19  2  0
 19 20  1  0
 20 21  1  0
  5 22  1  0
 22 23  2  0
 23 24  1  0
 23  2  1  0
 17  7  1  0
 20 16  1  0
M  END
>  <Compound_ID>  (269) 
CHEMBL4100895

>  <Molecule Name>  (269) 
nan

>  <Molecular Weight>  (269) 
346.82

>  <AlogP>  (269) 
2.86

>  <Smiles>  (269) 
Cc1ccc(Nc2nc(NCCCO)nc3c2cnn3C)cc1Cl

>  <Standard Type>  (269) 
IC50

>  <Standard Relation>  (269) 
'='

>  <Standard Units>  (269) 
nM

>  <Standard Value>  (269) 
20000.0

>  <Assay ChEMBL ID>  (269) 
CHEMBL4010460

>  <Assay Description>  (269) 
Inhibition of SYK (unknown origin) using FAM-labeled peptide as substrate preincubated for 10 mins followed by substrate addition measured after 25 mins

>  <BAO Format ID>  (269) 
BAO_0000357

>  <BAO Label>  (269) 
single protein format

>  <Assay Organism>  (269) 
Homo sapiens

>  <Target ChEMBL ID>  (269) 
CHEMBL2599

>  <Target Name>  (269) 
Tyrosine-protein kinase SYK

>  <Target Organism>  (269) 
Homo sapiens

>  <Target Type>  (269) 
SINGLE PROTEIN

>  <Document ChEMBL ID>  (269) 
CHEMBL4007463

>  <Source Description>  (269) 
Scientific Literature

>  <Document Journal>  (269) 
Bioorg Med Chem Lett

>  <Document Year>  (269) 
2017.0

>  <Active>  (269) 
0.0

>  <bits>  (269) 
<rdkit.DataStructs.cDataStructs.ExplicitBitVect object at 0x00000193F34111C0>

>  <Group>  (269) 
G2

$$$$

     RDKit          2D

 22 24  0  0  0  0  0  0  0  0999 V2000
    0.4022   -7.7629    0.0000 O   0  0  0  0  0  0  0  0  0  0  0  0
    0.2454   -6.2711    0.0000 C   0  0  0  0  0  0  0  0  0  0  0  0
    1.3601   -5.2674    0.0000 N   0  0  0  0  0  0  0  0  0  0  0  0
    0.7500   -3.8971    0.0000 C   0  0  0  0  0  0  0  0  0  0  0  0
    1.5000   -2.5981    0.0000 N   0  0  0  0  0  0  0  0  0  0  0  0
    0.7500   -1.2990    0.0000 C   0  0  0  0  0  0  0  0  0  0  0  0
    1.5000    0.0000    0.0000 C   0  0  0  0  0  0  0  0  0  0  0  0
    0.7500    1.2990    0.0000 C   0  0  0  0  0  0  0  0  0  0  0  0
   -0.7500    1.2990    0.0000 C   0  0  0  0  0  0  0  0  0  0  0  0
   -1.5000    2.5981    0.0000 O   0  0  0  0  0  0  0  0  0  0  0  0
   -1.5000    0.0000    0.0000 C   0  0  0  0  0  0  0  0  0  0  0  0
   -0.7500   -1.2990    0.0000 C   0  0  0  0  0  0  0  0  0  0  0  0
   -0.7418   -4.0539    0.0000 S   0  0  0  0  0  0  0  0  0  0  0  0
   -1.0537   -5.5211    0.0000 C   0  0  0  0  0  0  0  0  0  0  0  0
   -2.4240   -6.1312    0.0000 C   0  0  0  0  0  0  0  0  0  0  0  0
   -3.6375   -5.2496    0.0000 C   0  0  0  0  0  0  0  0  0  0  0  0
   -3.4807   -3.7578    0.0000 C   0  0  0  0  0  0  0  0  0  0  0  0
   -4.6942   -2.8761    0.0000 C   0  0  0  0  0  0  0  0  0  0  0  0
   -6.0645   -3.4862    0.0000 C   0  0  0  0  0  0  0  0  0  0  0  0
   -6.2213   -4.9780    0.0000 C   0  0  0  0  0  0  0  0  0  0  0  0
   -7.5917   -5.5881    0.0000 O   0  0  0  0  0  0  0  0  0  0  0  0
   -5.0078   -5.8597    0.0000 C   0  0  0  0  0  0  0  0  0  0  0  0
  1  2  2  0
  2  3  1  0
  3  4  2  0
  4  5  1  0
  5  6  1  0
  6  7  2  0
  7  8  1  0
  8  9  2  0
  9 10  1  0
  9 11  1  0
 11 12  2  0
  4 13  1  0
 13 14  1  0
 14 15  2  0
 15 16  1  0
 16 17  2  0
 17 18  1  0
 18 19  2  0
 19 20  1  0
 20 21  1  0
 20 22  2  0
 14  2  1  0
 22 16  1  0
 12  6  1  0
M  END
>  <Compound_ID>  (270) 
CHEMBL4075601

>  <Molecule Name>  (270) 
nan

>  <Molecular Weight>  (270) 
312.35

>  <AlogP>  (270) 
3.18

>  <Smiles>  (270) 
O=C1N=C(Nc2ccc(O)cc2)S/C1=C\c1cccc(O)c1

>  <Standard Type>  (270) 
IC50

>  <Standard Relation>  (270) 
'='

>  <Standard Units>  (270) 
nM

>  <Standard Value>  (270) 
24000.0

>  <Assay ChEMBL ID>  (270) 
CHEMBL4010460

>  <Assay Description>  (270) 
Inhibition of SYK (unknown origin) using FAM-labeled peptide as substrate preincubated for 10 mins followed by substrate addition measured after 25 mins

>  <BAO Format ID>  (270) 
BAO_0000357

>  <BAO Label>  (270) 
single protein format

>  <Assay Organism>  (270) 
Homo sapiens

>  <Target ChEMBL ID>  (270) 
CHEMBL2599

>  <Target Name>  (270) 
Tyrosine-protein kinase SYK

>  <Target Organism>  (270) 
Homo sapiens

>  <Target Type>  (270) 
SINGLE PROTEIN

>  <Document ChEMBL ID>  (270) 
CHEMBL4007463

>  <Source Description>  (270) 
Scientific Literature

>  <Document Journal>  (270) 
Bioorg Med Chem Lett

>  <Document Year>  (270) 
2017.0

>  <Active>  (270) 
0.0

>  <bits>  (270) 
<rdkit.DataStructs.cDataStructs.ExplicitBitVect object at 0x00000193F34118C0>

>  <Group>  (270) 
G2

$$$$

     RDKit          2D

 27 29  0  0  0  0  0  0  0  0999 V2000
    3.0000    0.0000    0.0000 C   0  0  0  0  0  0  0  0  0  0  0  0
    1.5000    0.0000    0.0000 C   0  0  0  0  0  0  0  0  0  0  0  0
    0.7500   -1.2990    0.0000 C   0  0  0  0  0  0  0  0  0  0  0  0
   -0.7500   -1.2990    0.0000 C   0  0  0  0  0  0  0  0  0  0  0  0
   -1.5000    0.0000    0.0000 C   0  0  0  0  0  0  0  0  0  0  0  0
   -3.0000    0.0000    0.0000 O   0  0  0  0  0  0  0  0  0  0  0  0
   -3.7500    1.2990    0.0000 C   0  0  0  0  0  0  0  0  0  0  0  0
   -5.2500    1.2990    0.0000 C   0  0  0  0  0  0  0  0  0  0  0  0
   -6.0000    0.0000    0.0000 O   0  0  0  0  0  0  0  0  0  0  0  0
   -6.0000    2.5981    0.0000 N   0  0  0  0  0  0  0  0  0  0  0  0
   -7.5000    2.5981    0.0000 N   0  0  0  0  0  0  0  0  0  0  0  0
   -8.2500    3.8971    0.0000 C   0  0  0  0  0  0  0  0  0  0  0  0
   -9.7500    3.8971    0.0000 C   0  0  0  0  0  0  0  0  0  0  0  0
  -10.6317    2.6836    0.0000 C   0  0  0  0  0  0  0  0  0  0  0  0
  -12.0583    3.1471    0.0000 N   0  0  0  0  0  0  0  0  0  0  0  0
  -12.0583    4.6471    0.0000 N   0  0  0  0  0  0  0  0  0  0  0  0
  -10.6317    5.1106    0.0000 C   0  0  0  0  0  0  0  0  0  0  0  0
  -10.1682    6.5372    0.0000 C   0  0  0  0  0  0  0  0  0  0  0  0
   -8.7009    6.8491    0.0000 C   0  0  0  0  0  0  0  0  0  0  0  0
   -8.2374    8.2757    0.0000 C   0  0  0  0  0  0  0  0  0  0  0  0
   -9.2411    9.3904    0.0000 C   0  0  0  0  0  0  0  0  0  0  0  0
   -8.7776   10.8170    0.0000 Cl  0  0  0  0  0  0  0  0  0  0  0  0
  -10.7083    9.0785    0.0000 C   0  0  0  0  0  0  0  0  0  0  0  0
  -11.7120   10.1932    0.0000 Cl  0  0  0  0  0  0  0  0  0  0  0  0
  -11.1718    7.6519    0.0000 C   0  0  0  0  0  0  0  0  0  0  0  0
   -0.7500    1.2990    0.0000 C   0  0  0  0  0  0  0  0  0  0  0  0
    0.7500    1.2990    0.0000 C   0  0  0  0  0  0  0  0  0  0  0  0
  1  2  1  0
  2  3  2  0
  3  4  1  0
  4  5  2  0
  5  6  1  0
  6  7  1  0
  7  8  1  0
  8  9  2  0
  8 10  1  0
 10 11  1  0
 11 12  2  0
 12 13  1  0
 13 14  2  0
 14 15  1  0
 15 16  1  0
 16 17  2  0
 17 18  1  0
 18 19  2  0
 19 20  1  0
 20 21  2  0
 21 22  1  0
 21 23  1  0
 23 24  1  0
 23 25  2  0
  5 26  1  0
 26 27  2  0
 27  2  1  0
 17 13  1  0
 25 18  1  0
M  END
>  <Compound_ID>  (271) 
CHEMBL3192431

>  <Molecule Name>  (271) 
nan

>  <Molecular Weight>  (271) 
403.27

>  <AlogP>  (271) 
4.22

>  <Smiles>  (271) 
Cc1ccc(OCC(=O)N/N=C/c2c[nH]nc2-c2ccc(Cl)c(Cl)c2)cc1

>  <Standard Type>  (271) 
IC50

>  <Standard Relation>  (271) 
'='

>  <Standard Units>  (271) 
nM

>  <Standard Value>  (271) 
30900.0

>  <Assay ChEMBL ID>  (271) 
CHEMBL4010460

>  <Assay Description>  (271) 
Inhibition of SYK (unknown origin) using FAM-labeled peptide as substrate preincubated for 10 mins followed by substrate addition measured after 25 mins

>  <BAO Format ID>  (271) 
BAO_0000357

>  <BAO Label>  (271) 
single protein format

>  <Assay Organism>  (271) 
Homo sapiens

>  <Target ChEMBL ID>  (271) 
CHEMBL2599

>  <Target Name>  (271) 
Tyrosine-protein kinase SYK

>  <Target Organism>  (271) 
Homo sapiens

>  <Target Type>  (271) 
SINGLE PROTEIN

>  <Document ChEMBL ID>  (271) 
CHEMBL4007463

>  <Source Description>  (271) 
Scientific Literature

>  <Document Journal>  (271) 
Bioorg Med Chem Lett

>  <Document Year>  (271) 
2017.0

>  <Active>  (271) 
0.0

>  <bits>  (271) 
<rdkit.DataStructs.cDataStructs.ExplicitBitVect object at 0x00000193F3411E00>

>  <Group>  (271) 
G2

$$$$

     RDKit          2D

 24 27  0  0  0  0  0  0  0  0999 V2000
    3.0000    0.0000    0.0000 O   0  0  0  0  0  0  0  0  0  0  0  0
    1.5000    0.0000    0.0000 C   0  0  0  0  0  0  0  0  0  0  0  0
    0.7500   -1.2990    0.0000 C   0  0  0  0  0  0  0  0  0  0  0  0
   -0.7500   -1.2990    0.0000 C   0  0  0  0  0  0  0  0  0  0  0  0
   -1.5000    0.0000    0.0000 C   0  0  0  0  0  0  0  0  0  0  0  0
   -0.7500    1.2990    0.0000 C   0  0  0  0  0  0  0  0  0  0  0  0
   -1.5000    2.5981    0.0000 C   0  0  0  0  0  0  0  0  0  0  0  0
   -2.9918    2.7549    0.0000 N   0  0  0  0  0  0  0  0  0  0  0  0
   -3.3037    4.2221    0.0000 C   0  0  0  0  0  0  0  0  0  0  0  0
   -4.6740    4.8322    0.0000 C   0  0  0  0  0  0  0  0  0  0  0  0
   -4.8308    6.3240    0.0000 C   0  0  0  0  0  0  0  0  0  0  0  0
   -6.2011    6.9341    0.0000 C   0  0  0  0  0  0  0  0  0  0  0  0
   -7.4146    6.0524    0.0000 C   0  0  0  0  0  0  0  0  0  0  0  0
   -7.2578    4.5606    0.0000 C   0  0  0  0  0  0  0  0  0  0  0  0
   -5.8875    3.9505    0.0000 C   0  0  0  0  0  0  0  0  0  0  0  0
   -2.0046    4.9721    0.0000 N   0  0  0  0  0  0  0  0  0  0  0  0
   -0.8899    3.9684    0.0000 C   0  0  0  0  0  0  0  0  0  0  0  0
    0.5773    4.2803    0.0000 C   0  0  0  0  0  0  0  0  0  0  0  0
    1.5810    3.1655    0.0000 C   0  0  0  0  0  0  0  0  0  0  0  0
    3.0482    3.4774    0.0000 C   0  0  0  0  0  0  0  0  0  0  0  0
    3.5118    4.9040    0.0000 N   0  0  0  0  0  0  0  0  0  0  0  0
    2.5081    6.0187    0.0000 C   0  0  0  0  0  0  0  0  0  0  0  0
    1.0409    5.7068    0.0000 C   0  0  0  0  0  0  0  0  0  0  0  0
    0.7500    1.2990    0.0000 C   0  0  0  0  0  0  0  0  0  0  0  0
  1  2  1  0
  2  3  2  0
  3  4  1  0
  4  5  2  0
  5  6  1  0
  6  7  1  0
  7  8  1  0
  8  9  2  0
  9 10  1  0
 10 11  2  0
 11 12  1  0
 12 13  2  0
 13 14  1  0
 14 15  2  0
  9 16  1  0
 16 17  1  0
 17 18  1  0
 18 19  2  0
 19 20  1  0
 20 21  2  0
 21 22  1  0
 22 23  2  0
  6 24  2  0
 24  2  1  0
 17  7  2  0
 23 18  1  0
 15 10  1  0
M  END
>  <Compound_ID>  (272) 
CHEMBL1909413

>  <Molecule Name>  (272) 
nan

>  <Molecular Weight>  (272) 
349.82

>  <AlogP>  (272) 
4.51

>  <Smiles>  (272) 
Oc1cccc(-c2nc(-c3ccccc3)[nH]c2-c2ccncc2)c1

>  <Standard Type>  (272) 
Inhibition

>  <Standard Relation>  (272) 
'='

>  <Standard Units>  (272) 
%

>  <Standard Value>  (272) 
-2.15

>  <Assay ChEMBL ID>  (272) 
CHEMBL1962174

>  <Assay Description>  (272) 
GSK_PKIS: SYK mean inhibition at 0.1 uM [Nanosyn]

>  <BAO Format ID>  (272) 
BAO_0000357

>  <BAO Label>  (272) 
single protein format

>  <Assay Organism>  (272) 
None

>  <Target ChEMBL ID>  (272) 
CHEMBL2599

>  <Target Name>  (272) 
Tyrosine-protein kinase SYK

>  <Target Organism>  (272) 
Homo sapiens

>  <Target Type>  (272) 
SINGLE PROTEIN

>  <Document ChEMBL ID>  (272) 
CHEMBL1961873

>  <Source Description>  (272) 
GSK Published Kinase Inhibitor Set

>  <Document Journal>  (272) 
nan

>  <Document Year>  (272) 
nan

>  <Active>  (272) 
0.0

>  <bits>  (272) 
<rdkit.DataStructs.cDataStructs.ExplicitBitVect object at 0x00000193F3412500>

>  <Group>  (272) 
G2

$$$$

     RDKit          2D

 30 34  0  0  0  0  0  0  0  0999 V2000
   12.7500   -3.8971    0.0000 C   0  0  0  0  0  0  0  0  0  0  0  0
   12.0000   -5.1962    0.0000 C   0  0  0  0  0  0  0  0  0  0  0  0
   10.5000   -5.1962    0.0000 C   0  0  0  0  0  0  0  0  0  0  0  0
    9.7500   -3.8971    0.0000 C   0  0  0  0  0  0  0  0  0  0  0  0
    8.2500   -3.8971    0.0000 C   0  0  0  0  0  0  0  0  0  0  0  0
    7.5000   -2.5981    0.0000 O   0  0  0  0  0  0  0  0  0  0  0  0
    6.0000   -2.5981    0.0000 C   0  0  0  0  0  0  0  0  0  0  0  0
    5.2500   -1.2990    0.0000 C   0  0  0  0  0  0  0  0  0  0  0  0
    3.7500   -1.2990    0.0000 C   0  0  0  0  0  0  0  0  0  0  0  0
    3.0000   -2.5981    0.0000 C   0  0  0  0  0  0  0  0  0  0  0  0
    1.5000   -2.5981    0.0000 N   0  0  0  0  0  0  0  0  0  0  0  0
    0.7500   -1.2990    0.0000 C   0  0  0  0  0  0  0  0  0  0  0  0
    1.5000    0.0000    0.0000 N   0  0  0  0  0  0  0  0  0  0  0  0
    0.7500    1.2990    0.0000 C   0  0  0  0  0  0  0  0  0  0  0  0
   -0.7500    1.2990    0.0000 N   0  0  0  0  0  0  0  0  0  0  0  0
   -1.5000    0.0000    0.0000 C   0  0  0  0  0  0  0  0  0  0  0  0
   -3.0000    0.0000    0.0000 C   0  0  0  0  0  0  0  0  0  0  0  0
   -3.7500   -1.2990    0.0000 C   0  0  0  0  0  0  0  0  0  0  0  0
   -3.0000   -2.5981    0.0000 C   0  0  0  0  0  0  0  0  0  0  0  0
   -3.7500   -3.8971    0.0000 C   0  0  0  0  0  0  0  0  0  0  0  0
   -3.1399   -5.2674    0.0000 C   0  0  0  0  0  0  0  0  0  0  0  0
   -4.2546   -6.2711    0.0000 C   0  0  0  0  0  0  0  0  0  0  0  0
   -5.5537   -5.5211    0.0000 C   0  0  0  0  0  0  0  0  0  0  0  0
   -5.2418   -4.0539    0.0000 O   0  0  0  0  0  0  0  0  0  0  0  0
   -1.5000   -2.5981    0.0000 C   0  0  0  0  0  0  0  0  0  0  0  0
   -0.7500   -1.2990    0.0000 C   0  0  0  0  0  0  0  0  0  0  0  0
    3.7500   -3.8971    0.0000 C   0  0  0  0  0  0  0  0  0  0  0  0
    5.2500   -3.8971    0.0000 C   0  0  0  0  0  0  0  0  0  0  0  0
   10.5000   -2.5981    0.0000 C   0  0  0  0  0  0  0  0  0  0  0  0
   12.0000   -2.5981    0.0000 C   0  0  0  0  0  0  0  0  0  0  0  0
  1  2  2  0
  2  3  1  0
  3  4  2  0
  4  5  1  0
  5  6  1  0
  6  7  1  0
  7  8  2  0
  8  9  1  0
  9 10  2  0
 10 11  1  0
 11 12  1  0
 12 13  2  0
 13 14  1  0
 14 15  2  0
 15 16  1  0
 16 17  2  0
 17 18  1  0
 18 19  2  0
 19 20  1  0
 20 21  2  0
 21 22  1  0
 22 23  2  0
 23 24  1  0
 19 25  1  0
 25 26  2  0
 10 27  1  0
 27 28  2  0
  4 29  1  0
 29 30  2  0
 30  1  1  0
 28  7  1  0
 26 12  1  0
 26 16  1  0
 24 20  1  0
M  END
>  <Compound_ID>  (273) 
CHEMBL215993

>  <Molecule Name>  (273) 
GW284372X

>  <Molecular Weight>  (273) 
393.45

>  <AlogP>  (273) 
6.21

>  <Smiles>  (273) 
c1ccc(COc2ccc(Nc3ncnc4ccc(-c5ccco5)cc34)cc2)cc1

>  <Standard Type>  (273) 
Inhibition

>  <Standard Relation>  (273) 
'='

>  <Standard Units>  (273) 
%

>  <Standard Value>  (273) 
-0.45

>  <Assay ChEMBL ID>  (273) 
CHEMBL1962174

>  <Assay Description>  (273) 
GSK_PKIS: SYK mean inhibition at 0.1 uM [Nanosyn]

>  <BAO Format ID>  (273) 
BAO_0000357

>  <BAO Label>  (273) 
single protein format

>  <Assay Organism>  (273) 
None

>  <Target ChEMBL ID>  (273) 
CHEMBL2599

>  <Target Name>  (273) 
Tyrosine-protein kinase SYK

>  <Target Organism>  (273) 
Homo sapiens

>  <Target Type>  (273) 
SINGLE PROTEIN

>  <Document ChEMBL ID>  (273) 
CHEMBL1961873

>  <Source Description>  (273) 
GSK Published Kinase Inhibitor Set

>  <Document Journal>  (273) 
nan

>  <Document Year>  (273) 
nan

>  <Active>  (273) 
0.0

>  <bits>  (273) 
<rdkit.DataStructs.cDataStructs.ExplicitBitVect object at 0x00000193F3412260>

>  <Group>  (273) 
G2

$$$$

     RDKit          2D

 38 42  0  0  0  0  0  0  0  0999 V2000
   -6.2940    7.2357    0.0000 C   0  0  0  0  0  0  0  0  0  0  0  0
   -5.1793    6.2320    0.0000 O   0  0  0  0  0  0  0  0  0  0  0  0
   -3.7527    6.6955    0.0000 C   0  0  0  0  0  0  0  0  0  0  0  0
   -3.4408    8.1628    0.0000 C   0  0  0  0  0  0  0  0  0  0  0  0
   -2.0143    8.6263    0.0000 C   0  0  0  0  0  0  0  0  0  0  0  0
   -1.7024   10.0935    0.0000 N   0  0  0  0  0  0  0  0  0  0  0  0
   -0.2758   10.5570    0.0000 C   0  0  0  0  0  0  0  0  0  0  0  0
    0.0361   12.0242    0.0000 C   0  0  0  0  0  0  0  0  0  0  0  0
   -1.0786   13.0279    0.0000 N   0  0  0  0  0  0  0  0  0  0  0  0
   -0.7668   14.4952    0.0000 C   0  0  0  0  0  0  0  0  0  0  0  0
    0.6598   14.9587    0.0000 C   0  0  0  0  0  0  0  0  0  0  0  0
   -1.8815   15.4989    0.0000 C   0  0  0  0  0  0  0  0  0  0  0  0
   -2.5052   12.5644    0.0000 C   0  0  0  0  0  0  0  0  0  0  0  0
   -2.8171   11.0972    0.0000 C   0  0  0  0  0  0  0  0  0  0  0  0
   -0.8995    7.6226    0.0000 C   0  0  0  0  0  0  0  0  0  0  0  0
   -1.2114    6.1554    0.0000 C   0  0  0  0  0  0  0  0  0  0  0  0
   -2.6380    5.6918    0.0000 C   0  0  0  0  0  0  0  0  0  0  0  0
   -2.9499    4.2246    0.0000 N   0  0  0  0  0  0  0  0  0  0  0  0
   -1.8351    3.2209    0.0000 C   0  0  0  0  0  0  0  0  0  0  0  0
   -0.4086    3.6844    0.0000 N   0  0  0  0  0  0  0  0  0  0  0  0
    0.7062    2.6807    0.0000 C   0  0  0  0  0  0  0  0  0  0  0  0
    2.1328    3.1443    0.0000 N   0  0  0  0  0  0  0  0  0  0  0  0
    2.4446    4.6115    0.0000 C   0  0  0  0  0  0  0  0  0  0  0  0
    1.3299    5.6152    0.0000 C   0  0  0  0  0  0  0  0  0  0  0  0
    1.6418    7.0824    0.0000 C   0  0  0  0  0  0  0  0  0  0  0  0
    3.0684    7.5459    0.0000 C   0  0  0  0  0  0  0  0  0  0  0  0
    4.1831    6.5422    0.0000 C   0  0  0  0  0  0  0  0  0  0  0  0
    5.6097    7.0058    0.0000 F   0  0  0  0  0  0  0  0  0  0  0  0
    3.8712    5.0750    0.0000 C   0  0  0  0  0  0  0  0  0  0  0  0
    4.9859    4.0713    0.0000 C   0  0  0  0  0  0  0  0  0  0  0  0
    4.6741    2.6041    0.0000 O   0  0  0  0  0  0  0  0  0  0  0  0
    6.4125    4.5348    0.0000 O   0  0  0  0  0  0  0  0  0  0  0  0
    0.3943    1.2135    0.0000 C   0  0  0  0  0  0  0  0  0  0  0  0
    1.2760    0.0000    0.0000 C   0  0  0  0  0  0  0  0  0  0  0  0
    0.3943   -1.2135    0.0000 C   0  0  0  0  0  0  0  0  0  0  0  0
   -1.0323   -0.7500    0.0000 N   0  0  0  0  0  0  0  0  0  0  0  0
   -1.0323    0.7500    0.0000 C   0  0  0  0  0  0  0  0  0  0  0  0
   -2.1470    1.7537    0.0000 N   0  0  0  0  0  0  0  0  0  0  0  0
  1  2  1  0
  2  3  1  0
  3  4  2  0
  4  5  1  0
  5  6  1  0
  6  7  1  0
  7  8  1  0
  8  9  1  0
  9 10  1  0
 10 11  1  0
 10 12  1  0
  9 13  1  0
 13 14  1  0
  5 15  2  0
 15 16  1  0
 16 17  2  0
 17 18  1  0
 18 19  1  0
 19 20  2  0
 20 21  1  0
 21 22  1  0
 22 23  1  0
 23 24  2  0
 24 25  1  0
 25 26  2  0
 26 27  1  0
 27 28  1  0
 27 29  2  0
 29 30  1  0
 30 31  2  0
 30 32  1  0
 21 33  2  0
 33 34  1  0
 34 35  2  0
 35 36  1  0
 36 37  1  0
 37 38  2  0
 17  3  1  0
 38 19  1  0
 14  6  1  0
 29 23  1  0
 37 33  1  0
M  END
>  <Compound_ID>  (274) 
CHEMBL514261

>  <Molecule Name>  (274) 
GSK-1819799A

>  <Molecular Weight>  (274) 
519.58

>  <AlogP>  (274) 
4.82

>  <Smiles>  (274) 
COc1cc(N2CCN(C(C)C)CC2)ccc1Nc1nc(Nc2cccc(F)c2C(=O)O)c2cc[nH]c2n1

>  <Standard Type>  (274) 
Inhibition

>  <Standard Relation>  (274) 
'='

>  <Standard Units>  (274) 
%

>  <Standard Value>  (274) 
-4.66

>  <Assay ChEMBL ID>  (274) 
CHEMBL1962174

>  <Assay Description>  (274) 
GSK_PKIS: SYK mean inhibition at 0.1 uM [Nanosyn]

>  <BAO Format ID>  (274) 
BAO_0000357

>  <BAO Label>  (274) 
single protein format

>  <Assay Organism>  (274) 
None

>  <Target ChEMBL ID>  (274) 
CHEMBL2599

>  <Target Name>  (274) 
Tyrosine-protein kinase SYK

>  <Target Organism>  (274) 
Homo sapiens

>  <Target Type>  (274) 
SINGLE PROTEIN

>  <Document ChEMBL ID>  (274) 
CHEMBL1961873

>  <Source Description>  (274) 
GSK Published Kinase Inhibitor Set

>  <Document Journal>  (274) 
nan

>  <Document Year>  (274) 
nan

>  <Active>  (274) 
0.0

>  <bits>  (274) 
<rdkit.DataStructs.cDataStructs.ExplicitBitVect object at 0x00000193F3411A10>

>  <Group>  (274) 
G2

$$$$

     RDKit          2D

 33 38  0  0  0  0  0  0  0  0999 V2000
   -2.0276   -0.8744    0.0000 F   0  0  0  0  0  0  0  0  0  0  0  0
   -2.4911   -2.3009    0.0000 C   0  0  0  0  0  0  0  0  0  0  0  0
   -1.4874   -3.4157    0.0000 C   0  0  0  0  0  0  0  0  0  0  0  0
   -1.9509   -4.8423    0.0000 C   0  0  0  0  0  0  0  0  0  0  0  0
   -3.4182   -5.1541    0.0000 C   0  0  0  0  0  0  0  0  0  0  0  0
   -3.8817   -6.5807    0.0000 C   0  0  0  0  0  0  0  0  0  0  0  0
   -5.3083   -7.0442    0.0000 N   0  0  0  0  0  0  0  0  0  0  0  0
   -5.3083   -8.5442    0.0000 N   0  0  0  0  0  0  0  0  0  0  0  0
   -6.4230   -9.5479    0.0000 N   0  0  0  0  0  0  0  0  0  0  0  0
   -6.1111  -11.0151    0.0000 C   0  0  0  0  0  0  0  0  0  0  0  0
   -4.6845  -11.4787    0.0000 C   0  0  0  0  0  0  0  0  0  0  0  0
   -3.5698  -10.4750    0.0000 C   0  0  0  0  0  0  0  0  0  0  0  0
   -3.8817   -9.0078    0.0000 C   0  0  0  0  0  0  0  0  0  0  0  0
   -3.0000   -7.7942    0.0000 C   0  0  0  0  0  0  0  0  0  0  0  0
   -1.5000   -7.7942    0.0000 C   0  0  0  0  0  0  0  0  0  0  0  0
   -0.7500   -9.0933    0.0000 C   0  0  0  0  0  0  0  0  0  0  0  0
    0.7500   -9.0933    0.0000 C   0  0  0  0  0  0  0  0  0  0  0  0
    1.5000   -7.7942    0.0000 N   0  0  0  0  0  0  0  0  0  0  0  0
    0.7500   -6.4952    0.0000 C   0  0  0  0  0  0  0  0  0  0  0  0
    1.5000   -5.1962    0.0000 N   0  0  0  0  0  0  0  0  0  0  0  0
    0.7500   -3.8971    0.0000 C   0  0  0  0  0  0  0  0  0  0  0  0
   -0.7500   -3.8971    0.0000 C   0  0  0  0  0  0  0  0  0  0  0  0
   -1.5000   -2.5981    0.0000 C   0  0  0  0  0  0  0  0  0  0  0  0
   -0.7500   -1.2990    0.0000 C   0  0  0  0  0  0  0  0  0  0  0  0
    0.7500   -1.2990    0.0000 C   0  0  0  0  0  0  0  0  0  0  0  0
    1.5000   -2.5981    0.0000 C   0  0  0  0  0  0  0  0  0  0  0  0
    1.5000    0.0000    0.0000 O   0  0  0  0  0  0  0  0  0  0  0  0
    0.7500    1.2990    0.0000 C   0  0  0  0  0  0  0  0  0  0  0  0
   -0.7500    1.2990    0.0000 C   0  0  0  0  0  0  0  0  0  0  0  0
   -1.5000    0.0000    0.0000 O   0  0  0  0  0  0  0  0  0  0  0  0
   -0.7500   -6.4952    0.0000 N   0  0  0  0  0  0  0  0  0  0  0  0
   -4.4218   -4.0394    0.0000 C   0  0  0  0  0  0  0  0  0  0  0  0
   -3.9583   -2.6128    0.0000 C   0  0  0  0  0  0  0  0  0  0  0  0
  1  2  1  0
  2  3  2  0
  3  4  1  0
  4  5  2  0
  5  6  1  0
  6  7  2  0
  7  8  1  0
  8  9  1  0
  9 10  2  0
 10 11  1  0
 11 12  2  0
 12 13  1  0
 13 14  2  0
 14 15  1  0
 15 16  2  0
 16 17  1  0
 17 18  2  0
 18 19  1  0
 19 20  1  0
 20 21  1  0
 21 22  2  0
 22 23  1  0
 23 24  2  0
 24 25  1  0
 25 26  2  0
 25 27  1  0
 27 28  1  0
 28 29  1  0
 29 30  1  0
 19 31  2  0
  5 32  1  0
 32 33  2  0
 33  2  1  0
 14  6  1  0
 31 15  1  0
 13  8  1  0
 26 21  1  0
 30 24  1  0
M  END
>  <Compound_ID>  (275) 
CHEMBL365297

>  <Molecule Name>  (275) 
GW827099X

>  <Molecular Weight>  (275) 
440.44

>  <AlogP>  (275) 
4.51

>  <Smiles>  (275) 
Fc1ccc(-c2nn3ncccc3c2-c2ccnc(Nc3ccc4c(c3)OCCO4)n2)cc1

>  <Standard Type>  (275) 
Inhibition

>  <Standard Relation>  (275) 
'='

>  <Standard Units>  (275) 
%

>  <Standard Value>  (275) 
-3.1

>  <Assay ChEMBL ID>  (275) 
CHEMBL1962175

>  <Assay Description>  (275) 
GSK_PKIS: SYK mean inhibition at 1 uM [Nanosyn]

>  <BAO Format ID>  (275) 
BAO_0000357

>  <BAO Label>  (275) 
single protein format

>  <Assay Organism>  (275) 
None

>  <Target ChEMBL ID>  (275) 
CHEMBL2599

>  <Target Name>  (275) 
Tyrosine-protein kinase SYK

>  <Target Organism>  (275) 
Homo sapiens

>  <Target Type>  (275) 
SINGLE PROTEIN

>  <Document ChEMBL ID>  (275) 
CHEMBL1961873

>  <Source Description>  (275) 
GSK Published Kinase Inhibitor Set

>  <Document Journal>  (275) 
nan

>  <Document Year>  (275) 
nan

>  <Active>  (275) 
0.0

>  <bits>  (275) 
<rdkit.DataStructs.cDataStructs.ExplicitBitVect object at 0x00000193F3410040>

>  <Group>  (275) 
G2

$$$$

     RDKit          2D

 33 36  0  0  0  0  0  0  0  0999 V2000
   -9.5939  -10.9121    0.0000 C   0  0  0  0  0  0  0  0  0  0  0  0
   -8.1673  -10.4486    0.0000 N   0  0  0  0  0  0  0  0  0  0  0  0
   -7.0526  -11.4523    0.0000 C   0  0  0  0  0  0  0  0  0  0  0  0
   -7.8555   -8.9814    0.0000 C   0  0  0  0  0  0  0  0  0  0  0  0
   -6.4289   -8.5179    0.0000 C   0  0  0  0  0  0  0  0  0  0  0  0
   -6.1170   -7.0506    0.0000 C   0  0  0  0  0  0  0  0  0  0  0  0
   -4.6904   -6.5871    0.0000 N   0  0  0  0  0  0  0  0  0  0  0  0
   -4.3786   -5.1199    0.0000 C   0  0  0  0  0  0  0  0  0  0  0  0
   -5.4933   -4.1162    0.0000 N   0  0  0  0  0  0  0  0  0  0  0  0
   -5.1814   -2.6490    0.0000 C   0  0  0  0  0  0  0  0  0  0  0  0
   -3.7548   -2.1855    0.0000 C   0  0  0  0  0  0  0  0  0  0  0  0
   -2.6401   -3.1891    0.0000 C   0  0  0  0  0  0  0  0  0  0  0  0
   -1.2135   -2.7256    0.0000 C   0  0  0  0  0  0  0  0  0  0  0  0
   -0.0000   -3.6073    0.0000 C   0  0  0  0  0  0  0  0  0  0  0  0
   -0.0000   -5.1073    0.0000 C   0  0  0  0  0  0  0  0  0  0  0  0
   -1.2990   -5.8573    0.0000 C   0  0  0  0  0  0  0  0  0  0  0  0
   -1.2990   -7.3573    0.0000 C   0  0  0  0  0  0  0  0  0  0  0  0
   -0.0000   -8.1073    0.0000 C   0  0  0  0  0  0  0  0  0  0  0  0
    0.0000   -9.6073    0.0000 F   0  0  0  0  0  0  0  0  0  0  0  0
    1.2990   -7.3573    0.0000 C   0  0  0  0  0  0  0  0  0  0  0  0
    1.2990   -5.8573    0.0000 C   0  0  0  0  0  0  0  0  0  0  0  0
    1.2135   -2.7256    0.0000 N   0  0  0  0  0  0  0  0  0  0  0  0
    0.7500   -1.2990    0.0000 N   0  0  0  0  0  0  0  0  0  0  0  0
    1.5000    0.0000    0.0000 C   0  0  0  0  0  0  0  0  0  0  0  0
    0.7500    1.2990    0.0000 C   0  0  0  0  0  0  0  0  0  0  0  0
    1.5000    2.5981    0.0000 C   0  0  0  0  0  0  0  0  0  0  0  0
    2.2500    3.8971    0.0000 F   0  0  0  0  0  0  0  0  0  0  0  0
    2.7990    1.8481    0.0000 F   0  0  0  0  0  0  0  0  0  0  0  0
    0.2010    3.3481    0.0000 F   0  0  0  0  0  0  0  0  0  0  0  0
   -0.7500    1.2990    0.0000 C   0  0  0  0  0  0  0  0  0  0  0  0
   -1.5000    0.0000    0.0000 C   0  0  0  0  0  0  0  0  0  0  0  0
   -0.7500   -1.2990    0.0000 C   0  0  0  0  0  0  0  0  0  0  0  0
   -2.9520   -4.6564    0.0000 N   0  0  0  0  0  0  0  0  0  0  0  0
  1  2  1  0
  2  3  1  0
  2  4  1  0
  4  5  1  0
  5  6  1  0
  6  7  1  0
  7  8  1  0
  8  9  2  0
  9 10  1  0
 10 11  2  0
 11 12  1  0
 12 13  1  0
 13 14  1  0
 14 15  1  0
 15 16  2  0
 16 17  1  0
 17 18  2  0
 18 19  1  0
 18 20  1  0
 20 21  2  0
 14 22  2  0
 22 23  1  0
 23 24  1  0
 24 25  2  0
 25 26  1  0
 26 27  1  0
 26 28  1  0
 26 29  1  0
 25 30  1  0
 30 31  2  0
 31 32  1  0
 12 33  2  0
 33  8  1  0
 32 13  2  0
 21 15  1  0
 32 23  1  0
M  END
>  <Compound_ID>  (276) 
CHEMBL1909405

>  <Molecule Name>  (276) 
GW618013A

>  <Molecular Weight>  (276) 
554.57

>  <AlogP>  (276) 
4.98

>  <Smiles>  (276) 
CN(C)CCCNc1nccc(-c2c(-c3ccc(F)cc3)nn3cc(C(F)(F)F)ccc23)n1

>  <Standard Type>  (276) 
Inhibition

>  <Standard Relation>  (276) 
'='

>  <Standard Units>  (276) 
%

>  <Standard Value>  (276) 
-0.03

>  <Assay ChEMBL ID>  (276) 
CHEMBL1962175

>  <Assay Description>  (276) 
GSK_PKIS: SYK mean inhibition at 1 uM [Nanosyn]

>  <BAO Format ID>  (276) 
BAO_0000357

>  <BAO Label>  (276) 
single protein format

>  <Assay Organism>  (276) 
None

>  <Target ChEMBL ID>  (276) 
CHEMBL2599

>  <Target Name>  (276) 
Tyrosine-protein kinase SYK

>  <Target Organism>  (276) 
Homo sapiens

>  <Target Type>  (276) 
SINGLE PROTEIN

>  <Document ChEMBL ID>  (276) 
CHEMBL1961873

>  <Source Description>  (276) 
GSK Published Kinase Inhibitor Set

>  <Document Journal>  (276) 
nan

>  <Document Year>  (276) 
nan

>  <Active>  (276) 
0.0

>  <bits>  (276) 
<rdkit.DataStructs.cDataStructs.ExplicitBitVect object at 0x00000193F3410580>

>  <Group>  (276) 
G2

$$$$

     RDKit          2D

 44 50  0  0  0  0  0  0  0  0999 V2000
   -0.4702  -13.1562    0.0000 O   0  0  0  0  0  0  0  0  0  0  0  0
    1.0216  -12.9994    0.0000 C   0  0  0  0  0  0  0  0  0  0  0  0
    1.6317  -11.6291    0.0000 O   0  0  0  0  0  0  0  0  0  0  0  0
    0.7500  -10.4156    0.0000 C   0  0  0  0  0  0  0  0  0  0  0  0
   -0.7500  -10.4156    0.0000 C   0  0  0  0  0  0  0  0  0  0  0  0
   -1.2135   -8.9890    0.0000 N   0  0  0  0  0  0  0  0  0  0  0  0
    0.0000   -8.1073    0.0000 C   0  0  0  0  0  0  0  0  0  0  0  0
   -0.0000   -6.6073    0.0000 C   0  0  0  0  0  0  0  0  0  0  0  0
   -0.0000   -5.1073    0.0000 C   0  0  0  0  0  0  0  0  0  0  0  0
   -0.0000   -3.6073    0.0000 C   0  0  0  0  0  0  0  0  0  0  0  0
    1.2135   -2.7256    0.0000 C   0  0  0  0  0  0  0  0  0  0  0  0
    0.7500   -1.2990    0.0000 C   0  0  0  0  0  0  0  0  0  0  0  0
    1.5000    0.0000    0.0000 N   0  0  0  0  0  0  0  0  0  0  0  0
    0.7500    1.2990    0.0000 C   0  0  0  0  0  0  0  0  0  0  0  0
   -0.7500    1.2990    0.0000 N   0  0  0  0  0  0  0  0  0  0  0  0
   -1.5000    0.0000    0.0000 C   0  0  0  0  0  0  0  0  0  0  0  0
   -3.0000    0.0000    0.0000 N   0  0  0  0  0  0  0  0  0  0  0  0
   -3.7500    1.2990    0.0000 C   0  0  0  0  0  0  0  0  0  0  0  0
   -3.0000    2.5981    0.0000 C   0  0  0  0  0  0  0  0  0  0  0  0
   -3.7500    3.8971    0.0000 C   0  0  0  0  0  0  0  0  0  0  0  0
   -5.2500    3.8971    0.0000 C   0  0  0  0  0  0  0  0  0  0  0  0
   -6.0000    2.5981    0.0000 C   0  0  0  0  0  0  0  0  0  0  0  0
   -7.4672    2.9099    0.0000 C   0  0  0  0  0  0  0  0  0  0  0  0
   -7.6240    4.4017    0.0000 C   0  0  0  0  0  0  0  0  0  0  0  0
   -6.2537    5.0118    0.0000 N   0  0  0  0  0  0  0  0  0  0  0  0
   -5.9418    6.4791    0.0000 C   0  0  0  0  0  0  0  0  0  0  0  0
   -7.0565    7.4827    0.0000 C   0  0  0  0  0  0  0  0  0  0  0  0
   -6.7447    8.9500    0.0000 C   0  0  0  0  0  0  0  0  0  0  0  0
   -7.8594    9.9537    0.0000 C   0  0  0  0  0  0  0  0  0  0  0  0
   -7.5475   11.4209    0.0000 F   0  0  0  0  0  0  0  0  0  0  0  0
   -9.2860    9.4901    0.0000 C   0  0  0  0  0  0  0  0  0  0  0  0
   -9.5978    8.0229    0.0000 C   0  0  0  0  0  0  0  0  0  0  0  0
   -8.4831    7.0192    0.0000 C   0  0  0  0  0  0  0  0  0  0  0  0
   -8.7950    5.5520    0.0000 F   0  0  0  0  0  0  0  0  0  0  0  0
   -5.2500    1.2990    0.0000 C   0  0  0  0  0  0  0  0  0  0  0  0
   -0.7500   -1.2990    0.0000 C   0  0  0  0  0  0  0  0  0  0  0  0
   -1.2135   -2.7256    0.0000 S   0  0  0  0  0  0  0  0  0  0  0  0
    1.2135   -8.9890    0.0000 C   0  0  0  0  0  0  0  0  0  0  0  0
    1.9033  -14.2129    0.0000 N   0  0  0  0  0  0  0  0  0  0  0  0
    1.2931  -15.5833    0.0000 C   0  0  0  0  0  0  0  0  0  0  0  0
    2.1748  -16.7968    0.0000 C   0  0  0  0  0  0  0  0  0  0  0  0
    3.6666  -16.6400    0.0000 O   0  0  0  0  0  0  0  0  0  0  0  0
    4.2767  -15.2697    0.0000 C   0  0  0  0  0  0  0  0  0  0  0  0
    3.3950  -14.0561    0.0000 C   0  0  0  0  0  0  0  0  0  0  0  0
  1  2  2  0
  2  3  1  0
  4  3  1  1
  4  5  1  0
  5  6  1  0
  6  7  1  0
  7  8  1  6
  8  9  3  0
  9 10  1  0
 10 11  2  0
 11 12  1  0
 12 13  2  0
 13 14  1  0
 14 15  2  0
 15 16  1  0
 16 17  1  0
 17 18  1  0
 18 19  2  0
 19 20  1  0
 20 21  2  0
 21 22  1  0
 22 23  1  0
 23 24  2  0
 24 25  1  0
 25 26  1  0
 26 27  1  0
 27 28  2  0
 28 29  1  0
 29 30  1  0
 29 31  2  0
 31 32  1  0
 32 33  2  0
 33 34  1  0
 22 35  2  0
 16 36  2  0
 36 37  1  0
  7 38  1  0
  2 39  1  0
 39 40  1  0
 40 41  1  0
 41 42  1  0
 42 43  1  0
 43 44  1  0
 38  4  1  0
 44 39  1  0
 37 10  1  0
 36 12  1  0
 35 18  1  0
 25 21  1  0
 33 27  1  0
M  END
>  <Compound_ID>  (277) 
CHEMBL1909410

>  <Molecule Name>  (277) 
GSK-259178A

>  <Molecular Weight>  (277) 
728.7

>  <AlogP>  (277) 
5.27

>  <Smiles>  (277) 
O=C(O[C@H]1CN[C@H](C#Cc2cc3ncnc(Nc4ccc5c(ccn5Cc5cc(F)ccc5F)c4)c3s2)C1)N1CCOCC1

>  <Standard Type>  (277) 
Inhibition

>  <Standard Relation>  (277) 
'='

>  <Standard Units>  (277) 
%

>  <Standard Value>  (277) 
0.11

>  <Assay ChEMBL ID>  (277) 
CHEMBL1962175

>  <Assay Description>  (277) 
GSK_PKIS: SYK mean inhibition at 1 uM [Nanosyn]

>  <BAO Format ID>  (277) 
BAO_0000357

>  <BAO Label>  (277) 
single protein format

>  <Assay Organism>  (277) 
None

>  <Target ChEMBL ID>  (277) 
CHEMBL2599

>  <Target Name>  (277) 
Tyrosine-protein kinase SYK

>  <Target Organism>  (277) 
Homo sapiens

>  <Target Type>  (277) 
SINGLE PROTEIN

>  <Document ChEMBL ID>  (277) 
CHEMBL1961873

>  <Source Description>  (277) 
GSK Published Kinase Inhibitor Set

>  <Document Journal>  (277) 
nan

>  <Document Year>  (277) 
nan

>  <Active>  (277) 
0.0

>  <bits>  (277) 
<rdkit.DataStructs.cDataStructs.ExplicitBitVect object at 0x00000193F3410A50>

>  <Group>  (277) 
G2

$$$$

     RDKit          2D

 39 43  0  0  0  0  0  0  0  0999 V2000
  -11.4711  -10.1522    0.0000 C   0  0  0  0  0  0  0  0  0  0  0  0
  -10.8609   -8.7818    0.0000 S   0  0  0  0  0  0  0  0  0  0  0  0
   -9.4906   -9.3919    0.0000 O   0  0  0  0  0  0  0  0  0  0  0  0
  -12.2313   -8.1717    0.0000 O   0  0  0  0  0  0  0  0  0  0  0  0
  -10.2508   -7.4115    0.0000 C   0  0  0  0  0  0  0  0  0  0  0  0
   -8.7591   -7.2547    0.0000 C   0  0  0  0  0  0  0  0  0  0  0  0
   -8.1490   -5.8844    0.0000 N   0  0  0  0  0  0  0  0  0  0  0  0
   -6.6572   -5.7276    0.0000 C   0  0  0  0  0  0  0  0  0  0  0  0
   -6.0471   -4.3573    0.0000 C   0  0  0  0  0  0  0  0  0  0  0  0
   -4.5798   -4.0454    0.0000 C   0  0  0  0  0  0  0  0  0  0  0  0
   -4.4231   -2.5537    0.0000 C   0  0  0  0  0  0  0  0  0  0  0  0
   -3.1240   -1.8037    0.0000 C   0  0  0  0  0  0  0  0  0  0  0  0
   -1.7537   -2.4138    0.0000 C   0  0  0  0  0  0  0  0  0  0  0  0
   -0.7500   -1.2990    0.0000 C   0  0  0  0  0  0  0  0  0  0  0  0
    0.7500   -1.2990    0.0000 C   0  0  0  0  0  0  0  0  0  0  0  0
    1.5000   -2.5981    0.0000 N   0  0  0  0  0  0  0  0  0  0  0  0
    3.0000   -2.5981    0.0000 C   0  0  0  0  0  0  0  0  0  0  0  0
    3.7500   -3.8971    0.0000 C   0  0  0  0  0  0  0  0  0  0  0  0
    5.2500   -3.8971    0.0000 C   0  0  0  0  0  0  0  0  0  0  0  0
    6.0000   -2.5981    0.0000 C   0  0  0  0  0  0  0  0  0  0  0  0
    7.5000   -2.5981    0.0000 O   0  0  0  0  0  0  0  0  0  0  0  0
    8.2500   -3.8971    0.0000 C   0  0  0  0  0  0  0  0  0  0  0  0
    9.7500   -3.8971    0.0000 C   0  0  0  0  0  0  0  0  0  0  0  0
   10.5000   -5.1962    0.0000 C   0  0  0  0  0  0  0  0  0  0  0  0
   12.0000   -5.1962    0.0000 C   0  0  0  0  0  0  0  0  0  0  0  0
   12.7500   -3.8971    0.0000 C   0  0  0  0  0  0  0  0  0  0  0  0
   12.0000   -2.5981    0.0000 C   0  0  0  0  0  0  0  0  0  0  0  0
   12.7500   -1.2990    0.0000 F   0  0  0  0  0  0  0  0  0  0  0  0
   10.5000   -2.5981    0.0000 C   0  0  0  0  0  0  0  0  0  0  0  0
    5.2500   -1.2990    0.0000 C   0  0  0  0  0  0  0  0  0  0  0  0
    6.0000   -0.0000    0.0000 Cl  0  0  0  0  0  0  0  0  0  0  0  0
    3.7500   -1.2990    0.0000 C   0  0  0  0  0  0  0  0  0  0  0  0
    1.5000    0.0000    0.0000 N   0  0  0  0  0  0  0  0  0  0  0  0
    0.7500    1.2990    0.0000 C   0  0  0  0  0  0  0  0  0  0  0  0
   -0.7500    1.2990    0.0000 N   0  0  0  0  0  0  0  0  0  0  0  0
   -1.5000    0.0000    0.0000 C   0  0  0  0  0  0  0  0  0  0  0  0
   -2.9672   -0.3119    0.0000 S   0  0  0  0  0  0  0  0  0  0  0  0
   -5.7934   -1.9435    0.0000 C   0  0  0  0  0  0  0  0  0  0  0  0
   -6.7971   -3.0583    0.0000 S   0  0  0  0  0  0  0  0  0  0  0  0
  1  2  1  0
  2  3  2  0
  2  4  2  0
  2  5  1  0
  5  6  1  0
  6  7  1  0
  7  8  1  0
  8  9  1  0
  9 10  2  0
 10 11  1  0
 11 12  1  0
 12 13  2  0
 13 14  1  0
 14 15  2  0
 15 16  1  0
 16 17  1  0
 17 18  2  0
 18 19  1  0
 19 20  2  0
 20 21  1  0
 21 22  1  0
 22 23  1  0
 23 24  2  0
 24 25  1  0
 25 26  2  0
 26 27  1  0
 27 28  1  0
 27 29  2  0
 20 30  1  0
 30 31  1  0
 30 32  2  0
 15 33  1  0
 33 34  2  0
 34 35  1  0
 35 36  2  0
 36 37  1  0
 11 38  2  0
 38 39  1  0
 39  9  1  0
 37 12  1  0
 36 14  1  0
 32 17  1  0
 29 23  1  0
M  END
>  <Compound_ID>  (278) 
CHEMBL475599

>  <Molecule Name>  (278) 
GSK-300014A

>  <Molecular Weight>  (278) 
603.17

>  <AlogP>  (278) 
6.67

>  <Smiles>  (278) 
CS(=O)(=O)CCNCc1cc(-c2cc3c(Nc4ccc(OCc5cccc(F)c5)c(Cl)c4)ncnc3s2)cs1

>  <Standard Type>  (278) 
Inhibition

>  <Standard Relation>  (278) 
'='

>  <Standard Units>  (278) 
%

>  <Standard Value>  (278) 
-1.05

>  <Assay ChEMBL ID>  (278) 
CHEMBL1962174

>  <Assay Description>  (278) 
GSK_PKIS: SYK mean inhibition at 0.1 uM [Nanosyn]

>  <BAO Format ID>  (278) 
BAO_0000357

>  <BAO Label>  (278) 
single protein format

>  <Assay Organism>  (278) 
None

>  <Target ChEMBL ID>  (278) 
CHEMBL2599

>  <Target Name>  (278) 
Tyrosine-protein kinase SYK

>  <Target Organism>  (278) 
Homo sapiens

>  <Target Type>  (278) 
SINGLE PROTEIN

>  <Document ChEMBL ID>  (278) 
CHEMBL1961873

>  <Source Description>  (278) 
GSK Published Kinase Inhibitor Set

>  <Document Journal>  (278) 
nan

>  <Document Year>  (278) 
nan

>  <Active>  (278) 
0.0

>  <bits>  (278) 
<rdkit.DataStructs.cDataStructs.ExplicitBitVect object at 0x00000193F3410C80>

>  <Group>  (278) 
G2

$$$$

     RDKit          2D

 25 29  0  0  0  0  0  0  0  0999 V2000
   -5.1814   -2.6490    0.0000 C   0  0  0  0  0  0  0  0  0  0  0  0
   -3.7548   -2.1855    0.0000 C   0  0  0  0  0  0  0  0  0  0  0  0
   -2.6401   -3.1891    0.0000 C   0  0  0  0  0  0  0  0  0  0  0  0
   -1.2135   -2.7256    0.0000 C   0  0  0  0  0  0  0  0  0  0  0  0
   -0.0000   -3.6073    0.0000 C   0  0  0  0  0  0  0  0  0  0  0  0
    1.2135   -2.7256    0.0000 N   0  0  0  0  0  0  0  0  0  0  0  0
    0.7500   -1.2990    0.0000 N   0  0  0  0  0  0  0  0  0  0  0  0
    1.5000    0.0000    0.0000 N   0  0  0  0  0  0  0  0  0  0  0  0
    0.7500    1.2990    0.0000 C   0  0  0  0  0  0  0  0  0  0  0  0
    1.5000    2.5981    0.0000 N   0  0  0  0  0  0  0  0  0  0  0  0
    3.0000    2.5981    0.0000 C   0  0  0  0  0  0  0  0  0  0  0  0
    3.7500    3.8971    0.0000 C   0  0  0  0  0  0  0  0  0  0  0  0
    3.0000    5.1962    0.0000 O   0  0  0  0  0  0  0  0  0  0  0  0
    1.5000    5.1962    0.0000 C   0  0  0  0  0  0  0  0  0  0  0  0
    0.7500    3.8971    0.0000 C   0  0  0  0  0  0  0  0  0  0  0  0
   -0.7500    1.2990    0.0000 C   0  0  0  0  0  0  0  0  0  0  0  0
   -1.5000    0.0000    0.0000 C   0  0  0  0  0  0  0  0  0  0  0  0
   -0.7500   -1.2990    0.0000 C   0  0  0  0  0  0  0  0  0  0  0  0
   -2.9520   -4.6564    0.0000 N   0  0  0  0  0  0  0  0  0  0  0  0
   -4.3786   -5.1199    0.0000 C   0  0  0  0  0  0  0  0  0  0  0  0
   -4.6904   -6.5871    0.0000 N   0  0  0  0  0  0  0  0  0  0  0  0
   -6.1170   -7.0506    0.0000 C   0  0  0  0  0  0  0  0  0  0  0  0
   -7.1207   -8.1654    0.0000 C   0  0  0  0  0  0  0  0  0  0  0  0
   -7.5842   -6.7388    0.0000 C   0  0  0  0  0  0  0  0  0  0  0  0
   -5.4933   -4.1162    0.0000 N   0  0  0  0  0  0  0  0  0  0  0  0
  1  2  2  0
  2  3  1  0
  3  4  1  0
  4  5  1  0
  5  6  2  0
  6  7  1  0
  7  8  1  0
  8  9  2  0
  9 10  1  0
 10 11  1  0
 11 12  1  0
 12 13  1  0
 13 14  1  0
 14 15  1  0
  9 16  1  0
 16 17  2  0
 17 18  1  0
  3 19  2  0
 19 20  1  0
 20 21  1  0
 21 22  1  0
 22 23  1  0
 23 24  1  0
 20 25  2  0
 25  1  1  0
 18  4  2  0
 24 22  1  0
 18  7  1  0
 15 10  1  0
M  END
>  <Compound_ID>  (279) 
CHEMBL495771

>  <Molecule Name>  (279) 
GW708336X

>  <Molecular Weight>  (279) 
337.39

>  <AlogP>  (279) 
1.60

>  <Smiles>  (279) 
c1cc(-c2cnn3nc(N4CCOCC4)ccc23)nc(NC2CC2)n1

>  <Standard Type>  (279) 
Inhibition

>  <Standard Relation>  (279) 
'='

>  <Standard Units>  (279) 
%

>  <Standard Value>  (279) 
3.54

>  <Assay ChEMBL ID>  (279) 
CHEMBL1962174

>  <Assay Description>  (279) 
GSK_PKIS: SYK mean inhibition at 0.1 uM [Nanosyn]

>  <BAO Format ID>  (279) 
BAO_0000357

>  <BAO Label>  (279) 
single protein format

>  <Assay Organism>  (279) 
None

>  <Target ChEMBL ID>  (279) 
CHEMBL2599

>  <Target Name>  (279) 
Tyrosine-protein kinase SYK

>  <Target Organism>  (279) 
Homo sapiens

>  <Target Type>  (279) 
SINGLE PROTEIN

>  <Document ChEMBL ID>  (279) 
CHEMBL1961873

>  <Source Description>  (279) 
GSK Published Kinase Inhibitor Set

>  <Document Journal>  (279) 
nan

>  <Document Year>  (279) 
nan

>  <Active>  (279) 
0.0

>  <bits>  (279) 
<rdkit.DataStructs.cDataStructs.ExplicitBitVect object at 0x00000193F3411C40>

>  <Group>  (279) 
G2

$$$$

     RDKit          2D

 28 31  0  0  0  0  0  0  0  0999 V2000
   -9.1645    1.7722    0.0000 C   0  0  0  0  0  0  0  0  0  0  0  0
   -8.0498    0.7685    0.0000 O   0  0  0  0  0  0  0  0  0  0  0  0
   -6.6232    1.2320    0.0000 C   0  0  0  0  0  0  0  0  0  0  0  0
   -6.3114    2.6992    0.0000 C   0  0  0  0  0  0  0  0  0  0  0  0
   -4.8848    3.1627    0.0000 C   0  0  0  0  0  0  0  0  0  0  0  0
   -3.7701    2.1590    0.0000 C   0  0  0  0  0  0  0  0  0  0  0  0
   -4.0819    0.6918    0.0000 C   0  0  0  0  0  0  0  0  0  0  0  0
   -2.9672   -0.3119    0.0000 N   0  0  0  0  0  0  0  0  0  0  0  0
   -3.1240   -1.8037    0.0000 N   0  0  0  0  0  0  0  0  0  0  0  0
   -1.7537   -2.4138    0.0000 C   0  0  0  0  0  0  0  0  0  0  0  0
   -1.4418   -3.8810    0.0000 C   0  0  0  0  0  0  0  0  0  0  0  0
   -0.7500   -1.2990    0.0000 C   0  0  0  0  0  0  0  0  0  0  0  0
    0.7500   -1.2990    0.0000 C   0  0  0  0  0  0  0  0  0  0  0  0
    1.5000   -2.5981    0.0000 N   0  0  0  0  0  0  0  0  0  0  0  0
    3.0000   -2.5981    0.0000 N   0  0  0  0  0  0  0  0  0  0  0  0
    3.7500   -3.8971    0.0000 C   0  0  0  0  0  0  0  0  0  0  0  0
    3.0000   -5.1962    0.0000 C   0  0  0  0  0  0  0  0  0  0  0  0
    5.2500   -3.8971    0.0000 C   0  0  0  0  0  0  0  0  0  0  0  0
    6.0000   -5.1962    0.0000 C   0  0  0  0  0  0  0  0  0  0  0  0
    7.5000   -5.1962    0.0000 C   0  0  0  0  0  0  0  0  0  0  0  0
    8.2500   -3.8971    0.0000 N   0  0  0  0  0  0  0  0  0  0  0  0
    7.5000   -2.5981    0.0000 C   0  0  0  0  0  0  0  0  0  0  0  0
    6.0000   -2.5981    0.0000 C   0  0  0  0  0  0  0  0  0  0  0  0
    1.5000    0.0000    0.0000 N   0  0  0  0  0  0  0  0  0  0  0  0
    0.7500    1.2990    0.0000 C   0  0  0  0  0  0  0  0  0  0  0  0
   -0.7500    1.2990    0.0000 N   0  0  0  0  0  0  0  0  0  0  0  0
   -1.5000    0.0000    0.0000 C   0  0  0  0  0  0  0  0  0  0  0  0
   -5.5085    0.2283    0.0000 C   0  0  0  0  0  0  0  0  0  0  0  0
  1  2  1  0
  2  3  1  0
  3  4  2  0
  4  5  1  0
  5  6  2  0
  6  7  1  0
  7  8  1  0
  8  9  1  0
  9 10  2  0
 10 11  1  0
 10 12  1  0
 12 13  2  0
 13 14  1  0
 14 15  1  0
 15 16  2  0
 16 17  1  0
 16 18  1  0
 18 19  2  0
 19 20  1  0
 20 21  2  0
 21 22  1  0
 22 23  2  0
 13 24  1  0
 24 25  2  0
 25 26  1  0
 26 27  2  0
  7 28  2  0
 28  3  1  0
 27  8  1  0
 27 12  1  0
 23 18  1  0
M  END
>  <Compound_ID>  (280) 
CHEMBL442363

>  <Molecule Name>  (280) 
GW809885X

>  <Molecular Weight>  (280) 
373.42

>  <AlogP>  (280) 
3.36

>  <Smiles>  (280) 
COc1cccc(-n2nc(C)c3c(N/N=C(\C)c4ccncc4)ncnc32)c1

>  <Standard Type>  (280) 
Inhibition

>  <Standard Relation>  (280) 
'='

>  <Standard Units>  (280) 
%

>  <Standard Value>  (280) 
2.38

>  <Assay ChEMBL ID>  (280) 
CHEMBL1962175

>  <Assay Description>  (280) 
GSK_PKIS: SYK mean inhibition at 1 uM [Nanosyn]

>  <BAO Format ID>  (280) 
BAO_0000357

>  <BAO Label>  (280) 
single protein format

>  <Assay Organism>  (280) 
None

>  <Target ChEMBL ID>  (280) 
CHEMBL2599

>  <Target Name>  (280) 
Tyrosine-protein kinase SYK

>  <Target Organism>  (280) 
Homo sapiens

>  <Target Type>  (280) 
SINGLE PROTEIN

>  <Document ChEMBL ID>  (280) 
CHEMBL1961873

>  <Source Description>  (280) 
GSK Published Kinase Inhibitor Set

>  <Document Journal>  (280) 
nan

>  <Document Year>  (280) 
nan

>  <Active>  (280) 
0.0

>  <bits>  (280) 
<rdkit.DataStructs.cDataStructs.ExplicitBitVect object at 0x00000193F3411FC0>

>  <Group>  (280) 
G2

$$$$

     RDKit          2D

 22 24  0  0  0  0  0  0  0  0999 V2000
    4.5000    0.0000    0.0000 N   0  0  0  0  0  0  0  0  0  0  0  0
    3.0000    0.0000    0.0000 S   0  0  0  0  0  0  0  0  0  0  0  0
    3.0000   -1.5000    0.0000 O   0  0  0  0  0  0  0  0  0  0  0  0
    3.0000    1.5000    0.0000 O   0  0  0  0  0  0  0  0  0  0  0  0
    1.5000    0.0000    0.0000 C   0  0  0  0  0  0  0  0  0  0  0  0
    0.7500   -1.2990    0.0000 C   0  0  0  0  0  0  0  0  0  0  0  0
   -0.7500   -1.2990    0.0000 C   0  0  0  0  0  0  0  0  0  0  0  0
   -1.5000    0.0000    0.0000 C   0  0  0  0  0  0  0  0  0  0  0  0
   -3.0000    0.0000    0.0000 N   0  0  0  0  0  0  0  0  0  0  0  0
   -3.7500    1.2990    0.0000 C   0  0  0  0  0  0  0  0  0  0  0  0
   -5.2418    1.4558    0.0000 N   0  0  0  0  0  0  0  0  0  0  0  0
   -5.5537    2.9231    0.0000 C   0  0  0  0  0  0  0  0  0  0  0  0
   -4.2546    3.6731    0.0000 C   0  0  0  0  0  0  0  0  0  0  0  0
   -4.0978    5.1648    0.0000 C   0  0  0  0  0  0  0  0  0  0  0  0
   -2.7275    5.7749    0.0000 C   0  0  0  0  0  0  0  0  0  0  0  0
   -2.5707    7.2667    0.0000 C   0  0  0  0  0  0  0  0  0  0  0  0
   -3.7842    8.1484    0.0000 C   0  0  0  0  0  0  0  0  0  0  0  0
   -5.1546    7.5383    0.0000 C   0  0  0  0  0  0  0  0  0  0  0  0
   -5.3113    6.0465    0.0000 C   0  0  0  0  0  0  0  0  0  0  0  0
   -3.1399    2.6694    0.0000 O   0  0  0  0  0  0  0  0  0  0  0  0
   -0.7500    1.2990    0.0000 C   0  0  0  0  0  0  0  0  0  0  0  0
    0.7500    1.2990    0.0000 C   0  0  0  0  0  0  0  0  0  0  0  0
  1  2  1  0
  2  3  2  0
  2  4  2  0
  2  5  1  0
  5  6  2  0
  6  7  1  0
  7  8  2  0
  8  9  1  0
  9 10  1  0
 10 11  2  0
 11 12  1  0
 12 13  2  0
 13 14  1  0
 14 15  2  0
 15 16  1  0
 16 17  2  0
 17 18  1  0
 18 19  2  0
 13 20  1  0
  8 21  1  0
 21 22  2  0
 22  5  1  0
 20 10  1  0
 19 14  1  0
M  END
>  <Compound_ID>  (281) 
CHEMBL194062

>  <Molecule Name>  (281) 
GW572399X

>  <Molecular Weight>  (281) 
315.35

>  <AlogP>  (281) 
2.73

>  <Smiles>  (281) 
NS(=O)(=O)c1ccc(Nc2ncc(-c3ccccc3)o2)cc1

>  <Standard Type>  (281) 
Inhibition

>  <Standard Relation>  (281) 
'='

>  <Standard Units>  (281) 
%

>  <Standard Value>  (281) 
-1.05

>  <Assay ChEMBL ID>  (281) 
CHEMBL1962175

>  <Assay Description>  (281) 
GSK_PKIS: SYK mean inhibition at 1 uM [Nanosyn]

>  <BAO Format ID>  (281) 
BAO_0000357

>  <BAO Label>  (281) 
single protein format

>  <Assay Organism>  (281) 
None

>  <Target ChEMBL ID>  (281) 
CHEMBL2599

>  <Target Name>  (281) 
Tyrosine-protein kinase SYK

>  <Target Organism>  (281) 
Homo sapiens

>  <Target Type>  (281) 
SINGLE PROTEIN

>  <Document ChEMBL ID>  (281) 
CHEMBL1961873

>  <Source Description>  (281) 
GSK Published Kinase Inhibitor Set

>  <Document Journal>  (281) 
nan

>  <Document Year>  (281) 
nan

>  <Active>  (281) 
0.0

>  <bits>  (281) 
<rdkit.DataStructs.cDataStructs.ExplicitBitVect object at 0x00000193F3412880>

>  <Group>  (281) 
G2

$$$$

     RDKit          2D

 38 42  0  0  0  0  0  0  0  0999 V2000
   -3.8230    3.5974    0.0000 O   0  0  0  0  0  0  0  0  0  0  0  0
   -2.4186    3.0703    0.0000 C   0  0  0  0  0  0  0  0  0  0  0  0
   -1.3344    4.1069    0.0000 C   0  0  0  0  0  0  0  0  0  0  0  0
    0.1520    3.9056    0.0000 C   0  0  0  0  0  0  0  0  0  0  0  0
    0.9784    5.1574    0.0000 C   0  0  0  0  0  0  0  0  0  0  0  0
    2.4757    5.0677    0.0000 C   0  0  0  0  0  0  0  0  0  0  0  0
    3.3020    6.3196    0.0000 C   0  0  0  0  0  0  0  0  0  0  0  0
    2.6310    7.6611    0.0000 C   0  0  0  0  0  0  0  0  0  0  0  0
    1.1337    7.7508    0.0000 C   0  0  0  0  0  0  0  0  0  0  0  0
    0.4628    9.0924    0.0000 N   0  0  0  0  0  0  0  0  0  0  0  0
    1.2891   10.3443    0.0000 C   0  0  0  0  0  0  0  0  0  0  0  0
    2.7864   10.2546    0.0000 O   0  0  0  0  0  0  0  0  0  0  0  0
    0.6181   11.6858    0.0000 C   0  0  0  0  0  0  0  0  0  0  0  0
    1.4445   12.9377    0.0000 C   0  0  0  0  0  0  0  0  0  0  0  0
    0.7735   14.2793    0.0000 C   0  0  0  0  0  0  0  0  0  0  0  0
   -0.7238   14.3690    0.0000 C   0  0  0  0  0  0  0  0  0  0  0  0
   -1.3948   15.7105    0.0000 Cl  0  0  0  0  0  0  0  0  0  0  0  0
   -1.5501   13.1171    0.0000 C   0  0  0  0  0  0  0  0  0  0  0  0
   -3.0475   13.2068    0.0000 C   0  0  0  0  0  0  0  0  0  0  0  0
   -4.5448   13.2965    0.0000 F   0  0  0  0  0  0  0  0  0  0  0  0
   -3.1372   11.7095    0.0000 F   0  0  0  0  0  0  0  0  0  0  0  0
   -2.9578   14.7041    0.0000 F   0  0  0  0  0  0  0  0  0  0  0  0
   -0.8792   11.7755    0.0000 C   0  0  0  0  0  0  0  0  0  0  0  0
    0.3074    6.4990    0.0000 C   0  0  0  0  0  0  0  0  0  0  0  0
    0.9214    2.6179    0.0000 N   0  0  0  0  0  0  0  0  0  0  0  0
    0.3943    1.2135    0.0000 C   0  0  0  0  0  0  0  0  0  0  0  0
    1.2760    0.0000    0.0000 C   0  0  0  0  0  0  0  0  0  0  0  0
    0.3943   -1.2135    0.0000 N   0  0  0  0  0  0  0  0  0  0  0  0
   -1.0323   -0.7500    0.0000 N   0  0  0  0  0  0  0  0  0  0  0  0
   -2.2458   -1.6317    0.0000 C   0  0  0  0  0  0  0  0  0  0  0  0
   -2.0890   -3.1235    0.0000 C   0  0  0  0  0  0  0  0  0  0  0  0
   -3.3025   -4.0051    0.0000 C   0  0  0  0  0  0  0  0  0  0  0  0
   -3.1458   -5.4969    0.0000 C   0  0  0  0  0  0  0  0  0  0  0  0
   -1.7754   -6.1070    0.0000 C   0  0  0  0  0  0  0  0  0  0  0  0
   -0.5619   -5.2253    0.0000 C   0  0  0  0  0  0  0  0  0  0  0  0
   -0.7187   -3.7336    0.0000 C   0  0  0  0  0  0  0  0  0  0  0  0
   -1.0323    0.7500    0.0000 C   0  0  0  0  0  0  0  0  0  0  0  0
   -2.2841    1.5763    0.0000 N   0  0  0  0  0  0  0  0  0  0  0  0
  1  2  2  0
  2  3  1  0
  3  4  1  0
  4  5  1  0
  5  6  2  0
  6  7  1  0
  7  8  2  0
  8  9  1  0
  9 10  1  0
 10 11  1  0
 11 12  2  0
 11 13  1  0
 13 14  2  0
 14 15  1  0
 15 16  2  0
 16 17  1  0
 16 18  1  0
 18 19  1  0
 19 20  1  0
 19 21  1  0
 19 22  1  0
 18 23  2  0
  9 24  2  0
  4 25  2  0
 25 26  1  0
 26 27  1  0
 27 28  2  0
 28 29  1  0
 29 30  1  0
 30 31  1  0
 31 32  2  0
 32 33  1  0
 33 34  2  0
 34 35  1  0
 35 36  2  0
 29 37  1  0
 37 38  1  0
 38  2  1  0
 24  5  1  0
 37 26  2  0
 23 13  1  0
 36 31  1  0
M  END
>  <Compound_ID>  (282) 
CHEMBL1917776

>  <Molecule Name>  (282) 
nan

>  <Molecular Weight>  (282) 
537.93

>  <AlogP>  (282) 
6.32

>  <Smiles>  (282) 
O=C1CC(c2cccc(NC(=O)c3ccc(Cl)c(C(F)(F)F)c3)c2)=Nc2cnn(Cc3ccccc3)c2N1

>  <Standard Type>  (282) 
Inhibition

>  <Standard Relation>  (282) 
'='

>  <Standard Units>  (282) 
%

>  <Standard Value>  (282) 
0.0

>  <Assay ChEMBL ID>  (282) 
CHEMBL1921561

>  <Assay Description>  (282) 
Inhibition of SYK at 10 uM

>  <BAO Format ID>  (282) 
BAO_0000357

>  <BAO Label>  (282) 
single protein format

>  <Assay Organism>  (282) 
None

>  <Target ChEMBL ID>  (282) 
CHEMBL2599

>  <Target Name>  (282) 
Tyrosine-protein kinase SYK

>  <Target Organism>  (282) 
Homo sapiens

>  <Target Type>  (282) 
SINGLE PROTEIN

>  <Document ChEMBL ID>  (282) 
CHEMBL1914457

>  <Source Description>  (282) 
Scientific Literature

>  <Document Journal>  (282) 
Bioorg Med Chem

>  <Document Year>  (282) 
2011.0

>  <Active>  (282) 
0.0

>  <bits>  (282) 
<rdkit.DataStructs.cDataStructs.ExplicitBitVect object at 0x00000193F34115B0>

>  <Group>  (282) 
G2

$$$$

     RDKit          2D

 36 40  0  0  0  0  0  0  0  0999 V2000
   -4.4228   16.0390    0.0000 C   0  0  0  0  0  0  0  0  0  0  0  0
   -3.3081   15.0353    0.0000 C   0  0  0  0  0  0  0  0  0  0  0  0
   -3.6200   13.5681    0.0000 C   0  0  0  0  0  0  0  0  0  0  0  0
   -2.5052   12.5644    0.0000 N   0  0  0  0  0  0  0  0  0  0  0  0
   -1.0786   13.0279    0.0000 C   0  0  0  0  0  0  0  0  0  0  0  0
    0.0361   12.0242    0.0000 C   0  0  0  0  0  0  0  0  0  0  0  0
   -0.2758   10.5570    0.0000 C   0  0  0  0  0  0  0  0  0  0  0  0
   -1.7024   10.0935    0.0000 C   0  0  0  0  0  0  0  0  0  0  0  0
   -2.0143    8.6263    0.0000 C   0  0  0  0  0  0  0  0  0  0  0  0
   -3.4408    8.1628    0.0000 C   0  0  0  0  0  0  0  0  0  0  0  0
   -3.7527    6.6955    0.0000 C   0  0  0  0  0  0  0  0  0  0  0  0
   -2.6380    5.6918    0.0000 C   0  0  0  0  0  0  0  0  0  0  0  0
   -2.9499    4.2246    0.0000 N   0  0  0  0  0  0  0  0  0  0  0  0
   -1.8351    3.2209    0.0000 C   0  0  0  0  0  0  0  0  0  0  0  0
   -0.4086    3.6844    0.0000 N   0  0  0  0  0  0  0  0  0  0  0  0
    0.7062    2.6807    0.0000 C   0  0  0  0  0  0  0  0  0  0  0  0
    2.1328    3.1443    0.0000 N   0  0  0  0  0  0  0  0  0  0  0  0
    2.4446    4.6115    0.0000 C   0  0  0  0  0  0  0  0  0  0  0  0
    1.3299    5.6152    0.0000 C   0  0  0  0  0  0  0  0  0  0  0  0
    1.6418    7.0824    0.0000 C   0  0  0  0  0  0  0  0  0  0  0  0
    3.0684    7.5459    0.0000 C   0  0  0  0  0  0  0  0  0  0  0  0
    4.1831    6.5422    0.0000 C   0  0  0  0  0  0  0  0  0  0  0  0
    3.8712    5.0750    0.0000 C   0  0  0  0  0  0  0  0  0  0  0  0
    4.9859    4.0713    0.0000 C   0  0  0  0  0  0  0  0  0  0  0  0
    6.4125    4.5348    0.0000 N   0  0  0  0  0  0  0  0  0  0  0  0
    4.6741    2.6041    0.0000 O   0  0  0  0  0  0  0  0  0  0  0  0
    0.3943    1.2135    0.0000 C   0  0  0  0  0  0  0  0  0  0  0  0
    1.2760    0.0000    0.0000 C   0  0  0  0  0  0  0  0  0  0  0  0
    0.3943   -1.2135    0.0000 C   0  0  0  0  0  0  0  0  0  0  0  0
   -1.0323   -0.7500    0.0000 N   0  0  0  0  0  0  0  0  0  0  0  0
   -1.0323    0.7500    0.0000 C   0  0  0  0  0  0  0  0  0  0  0  0
   -2.1470    1.7537    0.0000 N   0  0  0  0  0  0  0  0  0  0  0  0
   -1.2114    6.1554    0.0000 C   0  0  0  0  0  0  0  0  0  0  0  0
   -0.0967    5.1517    0.0000 C   0  0  0  0  0  0  0  0  0  0  0  0
   -0.8995    7.6226    0.0000 C   0  0  0  0  0  0  0  0  0  0  0  0
   -2.8171   11.0972    0.0000 C   0  0  0  0  0  0  0  0  0  0  0  0
  1  2  1  0
  2  3  1  0
  3  4  1  0
  4  5  1  0
  5  6  1  0
  6  7  1  0
  7  8  2  0
  8  9  1  0
  9 10  2  0
 10 11  1  0
 11 12  2  0
 12 13  1  0
 13 14  1  0
 14 15  2  0
 15 16  1  0
 16 17  1  0
 17 18  1  0
 18 19  2  0
 19 20  1  0
 20 21  2  0
 21 22  1  0
 22 23  2  0
 23 24  1  0
 24 25  1  0
 24 26  2  0
 16 27  2  0
 27 28  1  0
 28 29  2  0
 29 30  1  0
 30 31  1  0
 31 32  2  0
 12 33  1  0
 33 34  1  0
 33 35  2  0
  8 36  1  0
 36  4  1  0
 35  9  1  0
 32 14  1  0
 23 18  1  0
 31 27  1  0
M  END
>  <Compound_ID>  (283) 
CHEMBL513897

>  <Molecule Name>  (283) 
GSK-994854A

>  <Molecular Weight>  (283) 
481.6

>  <AlogP>  (283) 
5.35

>  <Smiles>  (283) 
CCCN1CCC=C(c2ccc(Nc3nc(Nc4ccccc4C(N)=O)c4cc[nH]c4n3)c(C)c2)C1

>  <Standard Type>  (283) 
Inhibition

>  <Standard Relation>  (283) 
'='

>  <Standard Units>  (283) 
%

>  <Standard Value>  (283) 
-0.42

>  <Assay ChEMBL ID>  (283) 
CHEMBL1962174

>  <Assay Description>  (283) 
GSK_PKIS: SYK mean inhibition at 0.1 uM [Nanosyn]

>  <BAO Format ID>  (283) 
BAO_0000357

>  <BAO Label>  (283) 
single protein format

>  <Assay Organism>  (283) 
None

>  <Target ChEMBL ID>  (283) 
CHEMBL2599

>  <Target Name>  (283) 
Tyrosine-protein kinase SYK

>  <Target Organism>  (283) 
Homo sapiens

>  <Target Type>  (283) 
SINGLE PROTEIN

>  <Document ChEMBL ID>  (283) 
CHEMBL1961873

>  <Source Description>  (283) 
GSK Published Kinase Inhibitor Set

>  <Document Journal>  (283) 
nan

>  <Document Year>  (283) 
nan

>  <Active>  (283) 
0.0

>  <bits>  (283) 
<rdkit.DataStructs.cDataStructs.ExplicitBitVect object at 0x00000193F3411E70>

>  <Group>  (283) 
G2

$$$$

     RDKit          2D

 31 34  0  0  0  0  0  0  0  0999 V2000
   -0.7500   -6.4952    0.0000 C   0  0  0  0  0  0  0  0  0  0  0  0
    0.7500   -6.4952    0.0000 C   0  0  0  0  0  0  0  0  0  0  0  0
    1.5000   -5.1962    0.0000 C   0  0  0  0  0  0  0  0  0  0  0  0
    0.7500   -3.8971    0.0000 C   0  0  0  0  0  0  0  0  0  0  0  0
   -0.7500   -3.8971    0.0000 O   0  0  0  0  0  0  0  0  0  0  0  0
    1.5000   -2.5981    0.0000 N   0  0  0  0  0  0  0  0  0  0  0  0
    0.7500   -1.2990    0.0000 C   0  0  0  0  0  0  0  0  0  0  0  0
    1.5000    0.0000    0.0000 C   0  0  0  0  0  0  0  0  0  0  0  0
    0.7500    1.2990    0.0000 C   0  0  0  0  0  0  0  0  0  0  0  0
   -0.7500    1.2990    0.0000 C   0  0  0  0  0  0  0  0  0  0  0  0
   -1.7537    2.4138    0.0000 N   0  0  0  0  0  0  0  0  0  0  0  0
   -3.1240    1.8037    0.0000 N   0  0  0  0  0  0  0  0  0  0  0  0
   -2.9672    0.3119    0.0000 C   0  0  0  0  0  0  0  0  0  0  0  0
   -4.0819   -0.6918    0.0000 C   0  0  0  0  0  0  0  0  0  0  0  0
   -1.5000    0.0000    0.0000 C   0  0  0  0  0  0  0  0  0  0  0  0
   -0.7500   -1.2990    0.0000 C   0  0  0  0  0  0  0  0  0  0  0  0
    3.0000   -5.1962    0.0000 C   0  0  0  0  0  0  0  0  0  0  0  0
    3.7500   -3.8971    0.0000 C   0  0  0  0  0  0  0  0  0  0  0  0
    5.2500   -3.8971    0.0000 C   0  0  0  0  0  0  0  0  0  0  0  0
    6.0000   -2.5981    0.0000 C   0  0  0  0  0  0  0  0  0  0  0  0
    5.2500   -1.2990    0.0000 C   0  0  0  0  0  0  0  0  0  0  0  0
    6.0000   -0.0000    0.0000 C   0  0  0  0  0  0  0  0  0  0  0  0
    6.7500    1.2990    0.0000 F   0  0  0  0  0  0  0  0  0  0  0  0
    7.2990   -0.7500    0.0000 F   0  0  0  0  0  0  0  0  0  0  0  0
    4.7010    0.7500    0.0000 F   0  0  0  0  0  0  0  0  0  0  0  0
    3.7500   -1.2990    0.0000 C   0  0  0  0  0  0  0  0  0  0  0  0
    3.0000   -2.5981    0.0000 C   0  0  0  0  0  0  0  0  0  0  0  0
    3.7500   -6.4952    0.0000 C   0  0  0  0  0  0  0  0  0  0  0  0
    3.0000   -7.7942    0.0000 C   0  0  0  0  0  0  0  0  0  0  0  0
    3.7500   -9.0933    0.0000 O   0  0  0  0  0  0  0  0  0  0  0  0
    1.5000   -7.7942    0.0000 N   0  0  0  0  0  0  0  0  0  0  0  0
  1  2  1  0
  2  3  2  0
  3  4  1  0
  4  5  2  0
  4  6  1  0
  6  7  1  0
  7  8  2  0
  8  9  1  0
  9 10  2  0
 10 11  1  0
 11 12  1  0
 12 13  2  0
 13 14  1  0
 13 15  1  0
 15 16  2  0
  3 17  1  0
 17 18  1  0
 18 19  2  0
 19 20  1  0
 20 21  2  0
 21 22  1  0
 22 23  1  0
 22 24  1  0
 22 25  1  0
 21 26  1  0
 26 27  2  0
 17 28  1  0
 28 29  1  0
 29 30  2  0
 29 31  1  0
 31  2  1  0
 16  7  1  0
 27 18  1  0
 15 10  1  0
M  END
>  <Compound_ID>  (284) 
CHEMBL218720

>  <Molecule Name>  (284) 
GSK-466314A

>  <Molecular Weight>  (284) 
428.41

>  <AlogP>  (284) 
4.41

>  <Smiles>  (284) 
CC1=C(C(=O)Nc2ccc3[nH]nc(C)c3c2)C(c2ccc(C(F)(F)F)cc2)CC(=O)N1

>  <Standard Type>  (284) 
Inhibition

>  <Standard Relation>  (284) 
'='

>  <Standard Units>  (284) 
%

>  <Standard Value>  (284) 
-4.6

>  <Assay ChEMBL ID>  (284) 
CHEMBL1962174

>  <Assay Description>  (284) 
GSK_PKIS: SYK mean inhibition at 0.1 uM [Nanosyn]

>  <BAO Format ID>  (284) 
BAO_0000357

>  <BAO Label>  (284) 
single protein format

>  <Assay Organism>  (284) 
None

>  <Target ChEMBL ID>  (284) 
CHEMBL2599

>  <Target Name>  (284) 
Tyrosine-protein kinase SYK

>  <Target Organism>  (284) 
Homo sapiens

>  <Target Type>  (284) 
SINGLE PROTEIN

>  <Document ChEMBL ID>  (284) 
CHEMBL1961873

>  <Source Description>  (284) 
GSK Published Kinase Inhibitor Set

>  <Document Journal>  (284) 
nan

>  <Document Year>  (284) 
nan

>  <Active>  (284) 
0.0

>  <bits>  (284) 
<rdkit.DataStructs.cDataStructs.ExplicitBitVect object at 0x00000193F34126C0>

>  <Group>  (284) 
G2

$$$$

     RDKit          2D

 23 26  0  0  0  0  0  0  0  0999 V2000
   -7.2296    2.8340    0.0000 C   0  0  0  0  0  0  0  0  0  0  0  0
   -6.1149    1.8303    0.0000 O   0  0  0  0  0  0  0  0  0  0  0  0
   -4.6883    2.2939    0.0000 C   0  0  0  0  0  0  0  0  0  0  0  0
   -4.3764    3.7611    0.0000 O   0  0  0  0  0  0  0  0  0  0  0  0
   -3.5736    1.2902    0.0000 N   0  0  0  0  0  0  0  0  0  0  0  0
   -2.1470    1.7537    0.0000 C   0  0  0  0  0  0  0  0  0  0  0  0
   -1.8351    3.2209    0.0000 C   0  0  0  0  0  0  0  0  0  0  0  0
   -0.4086    3.6844    0.0000 C   0  0  0  0  0  0  0  0  0  0  0  0
   -0.0967    5.1517    0.0000 C   0  0  0  0  0  0  0  0  0  0  0  0
   -1.1004    6.2664    0.0000 C   0  0  0  0  0  0  0  0  0  0  0  0
   -2.5922    6.1096    0.0000 C   0  0  0  0  0  0  0  0  0  0  0  0
   -3.8057    5.2279    0.0000 C   0  0  0  0  0  0  0  0  0  0  0  0
   -3.9625    6.7197    0.0000 C   0  0  0  0  0  0  0  0  0  0  0  0
   -0.3504    7.5654    0.0000 N   0  0  0  0  0  0  0  0  0  0  0  0
    1.1168    7.2536    0.0000 N   0  0  0  0  0  0  0  0  0  0  0  0
    1.2736    5.7618    0.0000 C   0  0  0  0  0  0  0  0  0  0  0  0
    2.5727    5.0118    0.0000 C   0  0  0  0  0  0  0  0  0  0  0  0
    0.7062    2.6807    0.0000 C   0  0  0  0  0  0  0  0  0  0  0  0
    0.3943    1.2135    0.0000 C   0  0  0  0  0  0  0  0  0  0  0  0
    1.2760    0.0000    0.0000 N   0  0  0  0  0  0  0  0  0  0  0  0
    0.3943   -1.2135    0.0000 N   0  0  0  0  0  0  0  0  0  0  0  0
   -1.0323   -0.7500    0.0000 C   0  0  0  0  0  0  0  0  0  0  0  0
   -1.0323    0.7500    0.0000 C   0  0  0  0  0  0  0  0  0  0  0  0
  1  2  1  0
  2  3  1  0
  3  4  2  0
  3  5  1  0
  5  6  1  0
  6  7  2  0
  7  8  1  0
  8  9  1  0
  9 10  1  0
 10 11  1  0
 11 12  1  0
 12 13  1  0
 10 14  2  0
 14 15  1  0
 15 16  1  0
 16 17  1  0
  8 18  2  0
 18 19  1  0
 19 20  1  0
 20 21  1  0
 21 22  2  0
 22 23  1  0
 23  6  1  0
 16  9  2  0
 23 19  2  0
 13 11  1  0
M  END
>  <Compound_ID>  (285) 
CHEMBL4129737

>  <Molecule Name>  (285) 
nan

>  <Molecular Weight>  (285) 
311.35

>  <AlogP>  (285) 
3.32

>  <Smiles>  (285) 
COC(=O)Nc1cc(-c2c(C3CC3)n[nH]c2C)cc2[nH]ncc12

>  <Standard Type>  (285) 
Inhibition

>  <Standard Relation>  (285) 
'='

>  <Standard Units>  (285) 
%

>  <Standard Value>  (285) 
8.0

>  <Assay ChEMBL ID>  (285) 
CHEMBL4120776

>  <Assay Description>  (285) 
Inhibition of SYK (unknown origin) at 0.164 uM relative to control

>  <BAO Format ID>  (285) 
BAO_0000357

>  <BAO Label>  (285) 
single protein format

>  <Assay Organism>  (285) 
Homo sapiens

>  <Target ChEMBL ID>  (285) 
CHEMBL2599

>  <Target Name>  (285) 
Tyrosine-protein kinase SYK

>  <Target Organism>  (285) 
Homo sapiens

>  <Target Type>  (285) 
SINGLE PROTEIN

>  <Document ChEMBL ID>  (285) 
CHEMBL4118098

>  <Source Description>  (285) 
Scientific Literature

>  <Document Journal>  (285) 
Bioorg Med Chem Lett

>  <Document Year>  (285) 
2017.0

>  <Active>  (285) 
0.0

>  <bits>  (285) 
<rdkit.DataStructs.cDataStructs.ExplicitBitVect object at 0x00000193F3412B20>

>  <Group>  (285) 
G2

$$$$

     RDKit          2D

 29 33  0  0  0  0  0  0  0  0999 V2000
   -8.3464   -5.0433    0.0000 C   0  0  0  0  0  0  0  0  0  0  0  0
   -6.9199   -4.5797    0.0000 S   0  0  0  0  0  0  0  0  0  0  0  0
   -6.4563   -6.0063    0.0000 O   0  0  0  0  0  0  0  0  0  0  0  0
   -7.3834   -3.1531    0.0000 O   0  0  0  0  0  0  0  0  0  0  0  0
   -5.4933   -4.1162    0.0000 C   0  0  0  0  0  0  0  0  0  0  0  0
   -5.1814   -2.6490    0.0000 C   0  0  0  0  0  0  0  0  0  0  0  0
   -3.7548   -2.1855    0.0000 C   0  0  0  0  0  0  0  0  0  0  0  0
   -2.6401   -3.1891    0.0000 C   0  0  0  0  0  0  0  0  0  0  0  0
   -1.2135   -2.7256    0.0000 N   0  0  0  0  0  0  0  0  0  0  0  0
   -0.0000   -3.6073    0.0000 N   0  0  0  0  0  0  0  0  0  0  0  0
    1.2135   -2.7256    0.0000 C   0  0  0  0  0  0  0  0  0  0  0  0
    2.6401   -3.1891    0.0000 C   0  0  0  0  0  0  0  0  0  0  0  0
    3.7548   -2.1855    0.0000 C   0  0  0  0  0  0  0  0  0  0  0  0
    5.1814   -2.6490    0.0000 N   0  0  0  0  0  0  0  0  0  0  0  0
    5.4933   -4.1162    0.0000 C   0  0  0  0  0  0  0  0  0  0  0  0
    6.7923   -4.8662    0.0000 N   0  0  0  0  0  0  0  0  0  0  0  0
    6.4805   -6.3334    0.0000 C   0  0  0  0  0  0  0  0  0  0  0  0
    4.9887   -6.4902    0.0000 C   0  0  0  0  0  0  0  0  0  0  0  0
    4.3786   -5.1199    0.0000 C   0  0  0  0  0  0  0  0  0  0  0  0
    2.9520   -4.6564    0.0000 C   0  0  0  0  0  0  0  0  0  0  0  0
    0.7500   -1.2990    0.0000 C   0  0  0  0  0  0  0  0  0  0  0  0
    1.5000    0.0000    0.0000 C   0  0  0  0  0  0  0  0  0  0  0  0
    3.0000    0.0000    0.0000 N   0  0  0  0  0  0  0  0  0  0  0  0
    0.7500    1.2990    0.0000 N   0  0  0  0  0  0  0  0  0  0  0  0
   -0.7500    1.2990    0.0000 C   0  0  0  0  0  0  0  0  0  0  0  0
   -1.5000    0.0000    0.0000 N   0  0  0  0  0  0  0  0  0  0  0  0
   -0.7500   -1.2990    0.0000 C   0  0  0  0  0  0  0  0  0  0  0  0
   -2.9520   -4.6564    0.0000 C   0  0  0  0  0  0  0  0  0  0  0  0
   -4.3786   -5.1199    0.0000 C   0  0  0  0  0  0  0  0  0  0  0  0
  1  2  1  0
  2  3  2  0
  2  4  2  0
  2  5  1  0
  5  6  2  0
  6  7  1  0
  7  8  2  0
  8  9  1  0
  9 10  1  0
 10 11  2  0
 11 12  1  0
 12 13  2  0
 13 14  1  0
 14 15  2  0
 15 16  1  0
 16 17  1  0
 17 18  2  0
 18 19  1  0
 19 20  2  0
 11 21  1  0
 21 22  2  0
 22 23  1  0
 22 24  1  0
 24 25  2  0
 25 26  1  0
 26 27  2  0
  8 28  1  0
 28 29  2  0
 29  5  1  0
 27  9  1  0
 20 12  1  0
 27 21  1  0
 19 15  1  0
M  END
>  <Compound_ID>  (286) 
CHEMBL4207014

>  <Molecule Name>  (286) 
nan

>  <Molecular Weight>  (286) 
405.44

>  <AlogP>  (286) 
2.34

>  <Smiles>  (286) 
CS(=O)(=O)c1ccc(-n2nc(-c3cnc4[nH]ccc4c3)c3c(N)ncnc32)cc1

>  <Standard Type>  (286) 
Inhibition

>  <Standard Relation>  (286) 
'='

>  <Standard Units>  (286) 
%

>  <Standard Value>  (286) 
7.0

>  <Assay ChEMBL ID>  (286) 
CHEMBL4191186

>  <Assay Description>  (286) 
Inhibition of recombinant full-length human Syk at 1 uM using poly(Glu,Tyr) 4:1 as substrate after 40 mins in presence of [gamma-33P]ATP by scintillation counting method

>  <BAO Format ID>  (286) 
BAO_0000357

>  <BAO Label>  (286) 
single protein format

>  <Assay Organism>  (286) 
Homo sapiens

>  <Target ChEMBL ID>  (286) 
CHEMBL2599

>  <Target Name>  (286) 
Tyrosine-protein kinase SYK

>  <Target Organism>  (286) 
Homo sapiens

>  <Target Type>  (286) 
SINGLE PROTEIN

>  <Document ChEMBL ID>  (286) 
CHEMBL4190187

>  <Source Description>  (286) 
Scientific Literature

>  <Document Journal>  (286) 
Bioorg Med Chem Lett

>  <Document Year>  (286) 
2017.0

>  <Active>  (286) 
0.0

>  <bits>  (286) 
<rdkit.DataStructs.cDataStructs.ExplicitBitVect object at 0x00000193F3410510>

>  <Group>  (286) 
G2

$$$$

     RDKit          2D

 34 38  0  0  0  0  0  0  0  0999 V2000
   11.8391  -10.8663    0.0000 C   0  0  0  0  0  0  0  0  0  0  0  0
   10.4688  -10.2562    0.0000 N   0  0  0  0  0  0  0  0  0  0  0  0
    9.2553  -11.1379    0.0000 C   0  0  0  0  0  0  0  0  0  0  0  0
   10.3120   -8.7644    0.0000 C   0  0  0  0  0  0  0  0  0  0  0  0
    8.9417   -8.1543    0.0000 C   0  0  0  0  0  0  0  0  0  0  0  0
    8.7849   -6.6625    0.0000 O   0  0  0  0  0  0  0  0  0  0  0  0
    7.4146   -6.0524    0.0000 C   0  0  0  0  0  0  0  0  0  0  0  0
    6.2011   -6.9341    0.0000 C   0  0  0  0  0  0  0  0  0  0  0  0
    4.8308   -6.3240    0.0000 C   0  0  0  0  0  0  0  0  0  0  0  0
    4.6740   -4.8322    0.0000 C   0  0  0  0  0  0  0  0  0  0  0  0
    3.3037   -4.2221    0.0000 C   0  0  0  0  0  0  0  0  0  0  0  0
    2.0046   -4.9721    0.0000 N   0  0  0  0  0  0  0  0  0  0  0  0
    0.8899   -3.9684    0.0000 C   0  0  0  0  0  0  0  0  0  0  0  0
   -0.5773   -4.2803    0.0000 C   0  0  0  0  0  0  0  0  0  0  0  0
   -1.5810   -3.1655    0.0000 C   0  0  0  0  0  0  0  0  0  0  0  0
   -3.0482   -3.4774    0.0000 C   0  0  0  0  0  0  0  0  0  0  0  0
   -3.5118   -4.9040    0.0000 N   0  0  0  0  0  0  0  0  0  0  0  0
   -2.5081   -6.0187    0.0000 C   0  0  0  0  0  0  0  0  0  0  0  0
   -1.0409   -5.7068    0.0000 C   0  0  0  0  0  0  0  0  0  0  0  0
    1.5000   -2.5981    0.0000 C   0  0  0  0  0  0  0  0  0  0  0  0
    0.7500   -1.2990    0.0000 C   0  0  0  0  0  0  0  0  0  0  0  0
    1.5000    0.0000    0.0000 C   0  0  0  0  0  0  0  0  0  0  0  0
    0.7500    1.2990    0.0000 C   0  0  0  0  0  0  0  0  0  0  0  0
   -0.7500    1.2990    0.0000 C   0  0  0  0  0  0  0  0  0  0  0  0
   -1.5000    0.0000    0.0000 C   0  0  0  0  0  0  0  0  0  0  0  0
   -0.7500   -1.2990    0.0000 C   0  0  0  0  0  0  0  0  0  0  0  0
   -2.9672    0.3119    0.0000 C   0  0  0  0  0  0  0  0  0  0  0  0
   -3.1240    1.8037    0.0000 C   0  0  0  0  0  0  0  0  0  0  0  0
   -1.7537    2.4138    0.0000 C   0  0  0  0  0  0  0  0  0  0  0  0
   -1.4418    3.8810    0.0000 N   0  0  0  0  0  0  0  0  0  0  0  0
   -2.5565    4.8847    0.0000 O   0  0  0  0  0  0  0  0  0  0  0  0
    2.9918   -2.7549    0.0000 N   0  0  0  0  0  0  0  0  0  0  0  0
    5.8875   -3.9505    0.0000 C   0  0  0  0  0  0  0  0  0  0  0  0
    7.2578   -4.5606    0.0000 C   0  0  0  0  0  0  0  0  0  0  0  0
  1  2  1  0
  2  3  1  0
  2  4  1  0
  4  5  1  0
  5  6  1  0
  6  7  1  0
  7  8  2  0
  8  9  1  0
  9 10  2  0
 10 11  1  0
 11 12  2  0
 12 13  1  0
 13 14  1  0
 14 15  2  0
 15 16  1  0
 16 17  2  0
 17 18  1  0
 18 19  2  0
 13 20  2  0
 20 21  1  0
 21 22  2  0
 22 23  1  0
 23 24  2  0
 24 25  1  0
 25 26  2  0
 25 27  1  0
 27 28  1  0
 28 29  1  0
 29 30  2  0
 30 31  1  0
 20 32  1  0
 10 33  1  0
 33 34  2  0
 34  7  1  0
 32 11  1  0
 19 14  1  0
 26 21  1  0
 29 24  1  0
M  END
>  <Compound_ID>  (287) 
CHEMBL1909414

>  <Molecule Name>  (287) 
nan

>  <Molecular Weight>  (287) 
508.02

>  <AlogP>  (287) 
4.87

>  <Smiles>  (287) 
CN(C)CCOc1ccc(-c2nc(-c3ccncc3)c(-c3ccc4c(c3)CC/C4=N\O)[nH]2)cc1

>  <Standard Type>  (287) 
Inhibition

>  <Standard Relation>  (287) 
'='

>  <Standard Units>  (287) 
%

>  <Standard Value>  (287) 
-0.9

>  <Assay ChEMBL ID>  (287) 
CHEMBL1962175

>  <Assay Description>  (287) 
GSK_PKIS: SYK mean inhibition at 1 uM [Nanosyn]

>  <BAO Format ID>  (287) 
BAO_0000357

>  <BAO Label>  (287) 
single protein format

>  <Assay Organism>  (287) 
None

>  <Target ChEMBL ID>  (287) 
CHEMBL2599

>  <Target Name>  (287) 
Tyrosine-protein kinase SYK

>  <Target Organism>  (287) 
Homo sapiens

>  <Target Type>  (287) 
SINGLE PROTEIN

>  <Document ChEMBL ID>  (287) 
CHEMBL1961873

>  <Source Description>  (287) 
GSK Published Kinase Inhibitor Set

>  <Document Journal>  (287) 
nan

>  <Document Year>  (287) 
nan

>  <Active>  (287) 
0.0

>  <bits>  (287) 
<rdkit.DataStructs.cDataStructs.ExplicitBitVect object at 0x00000193F34106D0>

>  <Group>  (287) 
G2

$$$$

     RDKit          2D

 29 32  0  0  0  0  0  0  0  0999 V2000
    2.6491    0.9642    0.0000 C   0  0  0  0  0  0  0  0  0  0  0  0
    1.5000    0.0000    0.0000 C   0  0  0  0  0  0  0  0  0  0  0  0
    2.6491   -0.9642    0.0000 C   0  0  0  0  0  0  0  0  0  0  0  0
    0.7500   -1.2990    0.0000 C   0  0  0  0  0  0  0  0  0  0  0  0
   -0.7500   -1.2990    0.0000 C   0  0  0  0  0  0  0  0  0  0  0  0
   -1.5000   -2.5981    0.0000 N   0  0  0  0  0  0  0  0  0  0  0  0
   -0.8899   -3.9684    0.0000 C   0  0  0  0  0  0  0  0  0  0  0  0
   -2.0046   -4.9721    0.0000 N   0  0  0  0  0  0  0  0  0  0  0  0
   -3.3037   -4.2221    0.0000 C   0  0  0  0  0  0  0  0  0  0  0  0
   -4.6740   -4.8322    0.0000 C   0  0  0  0  0  0  0  0  0  0  0  0
   -5.8875   -3.9505    0.0000 C   0  0  0  0  0  0  0  0  0  0  0  0
   -7.2578   -4.5606    0.0000 C   0  0  0  0  0  0  0  0  0  0  0  0
   -7.4146   -6.0524    0.0000 C   0  0  0  0  0  0  0  0  0  0  0  0
   -8.7849   -6.6625    0.0000 F   0  0  0  0  0  0  0  0  0  0  0  0
   -6.2011   -6.9341    0.0000 C   0  0  0  0  0  0  0  0  0  0  0  0
   -4.8308   -6.3240    0.0000 C   0  0  0  0  0  0  0  0  0  0  0  0
   -2.9918   -2.7549    0.0000 C   0  0  0  0  0  0  0  0  0  0  0  0
   -3.9955   -1.6402    0.0000 C   0  0  0  0  0  0  0  0  0  0  0  0
   -3.5320   -0.2136    0.0000 C   0  0  0  0  0  0  0  0  0  0  0  0
   -4.5356    0.9012    0.0000 C   0  0  0  0  0  0  0  0  0  0  0  0
   -6.0029    0.5893    0.0000 N   0  0  0  0  0  0  0  0  0  0  0  0
   -6.4664   -0.8373    0.0000 C   0  0  0  0  0  0  0  0  0  0  0  0
   -7.9336   -1.1492    0.0000 N   0  0  0  0  0  0  0  0  0  0  0  0
   -5.4627   -1.9520    0.0000 N   0  0  0  0  0  0  0  0  0  0  0  0
   -1.5000    0.0000    0.0000 C   0  0  0  0  0  0  0  0  0  0  0  0
   -0.7500    1.2990    0.0000 C   0  0  0  0  0  0  0  0  0  0  0  0
   -2.1595    1.8121    0.0000 C   0  0  0  0  0  0  0  0  0  0  0  0
   -0.4895    2.7762    0.0000 C   0  0  0  0  0  0  0  0  0  0  0  0
    0.7500    1.2990    0.0000 N   0  0  0  0  0  0  0  0  0  0  0  0
  1  2  1  0
  2  3  1  0
  2  4  1  0
  4  5  1  0
  5  6  1  0
  6  7  1  0
  7  8  2  0
  8  9  1  0
  9 10  1  0
 10 11  2  0
 11 12  1  0
 12 13  2  0
 13 14  1  0
 13 15  1  0
 15 16  2  0
  9 17  2  0
 17 18  1  0
 18 19  2  0
 19 20  1  0
 20 21  2  0
 21 22  1  0
 22 23  1  0
 22 24  2  0
  5 25  1  0
 25 26  1  0
 26 27  1  0
 26 28  1  0
 26 29  1  0
 29  2  1  0
 17  6  1  0
 24 18  1  0
 16 10  1  0
M  END
>  <Compound_ID>  (288) 
CHEMBL95502

>  <Molecule Name>  (288) 
nan

>  <Molecular Weight>  (288) 
394.5

>  <AlogP>  (288) 
4.21

>  <Smiles>  (288) 
CC1(C)CC(n2cnc(-c3ccc(F)cc3)c2-c2ccnc(N)n2)CC(C)(C)N1

>  <Standard Type>  (288) 
Inhibition

>  <Standard Relation>  (288) 
'='

>  <Standard Units>  (288) 
%

>  <Standard Value>  (288) 
-1.03

>  <Assay ChEMBL ID>  (288) 
CHEMBL1962174

>  <Assay Description>  (288) 
GSK_PKIS: SYK mean inhibition at 0.1 uM [Nanosyn]

>  <BAO Format ID>  (288) 
BAO_0000357

>  <BAO Label>  (288) 
single protein format

>  <Assay Organism>  (288) 
None

>  <Target ChEMBL ID>  (288) 
CHEMBL2599

>  <Target Name>  (288) 
Tyrosine-protein kinase SYK

>  <Target Organism>  (288) 
Homo sapiens

>  <Target Type>  (288) 
SINGLE PROTEIN

>  <Document ChEMBL ID>  (288) 
CHEMBL1961873

>  <Source Description>  (288) 
GSK Published Kinase Inhibitor Set

>  <Document Journal>  (288) 
nan

>  <Document Year>  (288) 
nan

>  <Active>  (288) 
0.0

>  <bits>  (288) 
<rdkit.DataStructs.cDataStructs.ExplicitBitVect object at 0x00000193F3410BA0>

>  <Group>  (288) 
G2

$$$$

     RDKit          2D

 28 32  0  0  0  0  0  0  0  0999 V2000
   -1.9091   14.2602    0.0000 O   0  0  0  0  0  0  0  0  0  0  0  0
   -2.7908   13.0467    0.0000 C   0  0  0  0  0  0  0  0  0  0  0  0
   -2.1807   11.6764    0.0000 C   0  0  0  0  0  0  0  0  0  0  0  0
   -0.6889   11.5196    0.0000 C   0  0  0  0  0  0  0  0  0  0  0  0
   -0.0788   10.1493    0.0000 C   0  0  0  0  0  0  0  0  0  0  0  0
   -0.9605    8.9357    0.0000 C   0  0  0  0  0  0  0  0  0  0  0  0
   -0.3504    7.5654    0.0000 C   0  0  0  0  0  0  0  0  0  0  0  0
    1.1168    7.2536    0.0000 N   0  0  0  0  0  0  0  0  0  0  0  0
    1.2736    5.7618    0.0000 C   0  0  0  0  0  0  0  0  0  0  0  0
    2.5727    5.0118    0.0000 C   0  0  0  0  0  0  0  0  0  0  0  0
    2.5727    3.5118    0.0000 C   0  0  0  0  0  0  0  0  0  0  0  0
    3.8717    2.7618    0.0000 C   0  0  0  0  0  0  0  0  0  0  0  0
    5.1707    3.5118    0.0000 C   0  0  0  0  0  0  0  0  0  0  0  0
    5.1707    5.0118    0.0000 C   0  0  0  0  0  0  0  0  0  0  0  0
    3.8717    5.7618    0.0000 N   0  0  0  0  0  0  0  0  0  0  0  0
   -0.0967    5.1517    0.0000 C   0  0  0  0  0  0  0  0  0  0  0  0
   -0.4086    3.6844    0.0000 C   0  0  0  0  0  0  0  0  0  0  0  0
   -1.8351    3.2209    0.0000 C   0  0  0  0  0  0  0  0  0  0  0  0
   -2.1470    1.7537    0.0000 C   0  0  0  0  0  0  0  0  0  0  0  0
   -1.0323    0.7500    0.0000 C   0  0  0  0  0  0  0  0  0  0  0  0
    0.3943    1.2135    0.0000 C   0  0  0  0  0  0  0  0  0  0  0  0
    0.7062    2.6807    0.0000 C   0  0  0  0  0  0  0  0  0  0  0  0
    1.2760    0.0000    0.0000 O   0  0  0  0  0  0  0  0  0  0  0  0
    0.3943   -1.2135    0.0000 C   0  0  0  0  0  0  0  0  0  0  0  0
   -1.0323   -0.7500    0.0000 O   0  0  0  0  0  0  0  0  0  0  0  0
   -1.1004    6.2664    0.0000 N   0  0  0  0  0  0  0  0  0  0  0  0
   -2.4523    9.0925    0.0000 C   0  0  0  0  0  0  0  0  0  0  0  0
   -3.0624   10.4628    0.0000 C   0  0  0  0  0  0  0  0  0  0  0  0
  1  2  1  0
  2  3  1  0
  3  4  2  0
  4  5  1  0
  5  6  2  0
  6  7  1  0
  7  8  2  0
  8  9  1  0
  9 10  1  0
 10 11  2  0
 11 12  1  0
 12 13  2  0
 13 14  1  0
 14 15  2  0
  9 16  2  0
 16 17  1  0
 17 18  2  0
 18 19  1  0
 19 20  2  0
 20 21  1  0
 21 22  2  0
 21 23  1  0
 23 24  1  0
 24 25  1  0
 16 26  1  0
  6 27  1  0
 27 28  2  0
 28  3  1  0
 26  7  1  0
 15 10  1  0
 22 17  1  0
 25 20  1  0
M  END
>  <Compound_ID>  (289) 
CHEMBL267228

>  <Molecule Name>  (289) 
nan

>  <Molecular Weight>  (289) 
371.4

>  <AlogP>  (289) 
4.03

>  <Smiles>  (289) 
OCc1ccc(-c2nc(-c3ccccn3)c(-c3ccc4c(c3)OCO4)[nH]2)cc1

>  <Standard Type>  (289) 
Inhibition

>  <Standard Relation>  (289) 
'='

>  <Standard Units>  (289) 
%

>  <Standard Value>  (289) 
-0.31

>  <Assay ChEMBL ID>  (289) 
CHEMBL1962175

>  <Assay Description>  (289) 
GSK_PKIS: SYK mean inhibition at 1 uM [Nanosyn]

>  <BAO Format ID>  (289) 
BAO_0000357

>  <BAO Label>  (289) 
single protein format

>  <Assay Organism>  (289) 
None

>  <Target ChEMBL ID>  (289) 
CHEMBL2599

>  <Target Name>  (289) 
Tyrosine-protein kinase SYK

>  <Target Organism>  (289) 
Homo sapiens

>  <Target Type>  (289) 
SINGLE PROTEIN

>  <Document ChEMBL ID>  (289) 
CHEMBL1961873

>  <Source Description>  (289) 
GSK Published Kinase Inhibitor Set

>  <Document Journal>  (289) 
nan

>  <Document Year>  (289) 
nan

>  <Active>  (289) 
0.0

>  <bits>  (289) 
<rdkit.DataStructs.cDataStructs.ExplicitBitVect object at 0x00000193F3411620>

>  <Group>  (289) 
G2

$$$$

     RDKit          2D

 26 29  0  0  0  0  0  0  0  0999 V2000
   -0.0000   -5.1073    0.0000 O   0  0  0  0  0  0  0  0  0  0  0  0
   -0.0000   -3.6073    0.0000 C   0  0  0  0  0  0  0  0  0  0  0  0
    1.2135   -2.7256    0.0000 N   0  0  0  0  0  0  0  0  0  0  0  0
    0.7500   -1.2990    0.0000 C   0  0  0  0  0  0  0  0  0  0  0  0
    1.5000    0.0000    0.0000 C   0  0  0  0  0  0  0  0  0  0  0  0
    0.7500    1.2990    0.0000 C   0  0  0  0  0  0  0  0  0  0  0  0
   -0.7500    1.2990    0.0000 C   0  0  0  0  0  0  0  0  0  0  0  0
   -1.5000    2.5981    0.0000 C   0  0  0  0  0  0  0  0  0  0  0  0
   -0.7500    3.8971    0.0000 C   0  0  0  0  0  0  0  0  0  0  0  0
   -1.5000    5.1962    0.0000 C   0  0  0  0  0  0  0  0  0  0  0  0
   -3.0000    5.1962    0.0000 C   0  0  0  0  0  0  0  0  0  0  0  0
   -3.7500    3.8971    0.0000 N   0  0  0  0  0  0  0  0  0  0  0  0
   -3.0000    2.5981    0.0000 C   0  0  0  0  0  0  0  0  0  0  0  0
   -1.5000    0.0000    0.0000 C   0  0  0  0  0  0  0  0  0  0  0  0
   -0.7500   -1.2990    0.0000 C   0  0  0  0  0  0  0  0  0  0  0  0
   -1.2135   -2.7256    0.0000 C   0  0  0  0  0  0  0  0  0  0  0  0
   -2.6401   -3.1891    0.0000 C   0  0  0  0  0  0  0  0  0  0  0  0
   -2.9520   -4.6564    0.0000 C   0  0  0  0  0  0  0  0  0  0  0  0
   -4.3786   -5.1199    0.0000 C   0  0  0  0  0  0  0  0  0  0  0  0
   -4.6904   -6.5871    0.0000 C   0  0  0  0  0  0  0  0  0  0  0  0
   -6.1170   -7.0506    0.0000 Br  0  0  0  0  0  0  0  0  0  0  0  0
   -3.5757   -7.5908    0.0000 C   0  0  0  0  0  0  0  0  0  0  0  0
   -3.8876   -9.0580    0.0000 O   0  0  0  0  0  0  0  0  0  0  0  0
   -2.1491   -7.1273    0.0000 C   0  0  0  0  0  0  0  0  0  0  0  0
   -1.0344   -8.1310    0.0000 Br  0  0  0  0  0  0  0  0  0  0  0  0
   -1.8373   -5.6601    0.0000 C   0  0  0  0  0  0  0  0  0  0  0  0
  1  2  2  0
  2  3  1  0
  3  4  1  0
  4  5  2  0
  5  6  1  0
  6  7  2  0
  7  8  1  0
  8  9  2  0
  9 10  1  0
 10 11  2  0
 11 12  1  0
 12 13  2  0
  7 14  1  0
 14 15  2  0
 15 16  1  0
 16 17  2  3
 17 18  1  0
 18 19  2  0
 19 20  1  0
 20 21  1  0
 20 22  2  0
 22 23  1  0
 22 24  1  0
 24 25  1  0
 24 26  2  0
 16  2  1  0
 26 18  1  0
 15  4  1  0
 13  8  1  0
M  END
>  <Compound_ID>  (290) 
CHEMBL1794050

>  <Molecule Name>  (290) 
GW429374A

>  <Molecular Weight>  (290) 
508.6

>  <AlogP>  (290) 
5.47

>  <Smiles>  (290) 
O=C1Nc2ccc(-c3cccnc3)cc2C1=Cc1cc(Br)c(O)c(Br)c1

>  <Standard Type>  (290) 
Inhibition

>  <Standard Relation>  (290) 
'='

>  <Standard Units>  (290) 
%

>  <Standard Value>  (290) 
-3.33

>  <Assay ChEMBL ID>  (290) 
CHEMBL1962174

>  <Assay Description>  (290) 
GSK_PKIS: SYK mean inhibition at 0.1 uM [Nanosyn]

>  <BAO Format ID>  (290) 
BAO_0000357

>  <BAO Label>  (290) 
single protein format

>  <Assay Organism>  (290) 
None

>  <Target ChEMBL ID>  (290) 
CHEMBL2599

>  <Target Name>  (290) 
Tyrosine-protein kinase SYK

>  <Target Organism>  (290) 
Homo sapiens

>  <Target Type>  (290) 
SINGLE PROTEIN

>  <Document ChEMBL ID>  (290) 
CHEMBL1961873

>  <Source Description>  (290) 
GSK Published Kinase Inhibitor Set

>  <Document Journal>  (290) 
nan

>  <Document Year>  (290) 
nan

>  <Active>  (290) 
0.0

>  <bits>  (290) 
<rdkit.DataStructs.cDataStructs.ExplicitBitVect object at 0x00000193F3411CB0>

>  <Group>  (290) 
G2

$$$$

     RDKit          2D

 28 32  0  0  0  0  0  0  0  0999 V2000
   -2.9520   -4.6564    0.0000 O   0  0  0  0  0  0  0  0  0  0  0  0
   -2.6401   -3.1891    0.0000 N   0  0  0  0  0  0  0  0  0  0  0  0
   -1.2135   -2.7256    0.0000 C   0  0  0  0  0  0  0  0  0  0  0  0
   -0.0000   -3.6073    0.0000 C   0  0  0  0  0  0  0  0  0  0  0  0
    1.2135   -2.7256    0.0000 C   0  0  0  0  0  0  0  0  0  0  0  0
    0.7500   -1.2990    0.0000 C   0  0  0  0  0  0  0  0  0  0  0  0
    1.5000    0.0000    0.0000 C   0  0  0  0  0  0  0  0  0  0  0  0
    0.7500    1.2990    0.0000 C   0  0  0  0  0  0  0  0  0  0  0  0
    1.5000    2.5981    0.0000 C   0  0  0  0  0  0  0  0  0  0  0  0
    0.8899    3.9684    0.0000 N   0  0  0  0  0  0  0  0  0  0  0  0
    2.0046    4.9721    0.0000 C   0  0  0  0  0  0  0  0  0  0  0  0
    1.8478    6.4639    0.0000 C   0  0  0  0  0  0  0  0  0  0  0  0
    3.0613    7.3456    0.0000 C   0  0  0  0  0  0  0  0  0  0  0  0
    2.9046    8.8373    0.0000 C   0  0  0  0  0  0  0  0  0  0  0  0
    1.5342    9.4474    0.0000 N   0  0  0  0  0  0  0  0  0  0  0  0
    0.3207    8.5658    0.0000 C   0  0  0  0  0  0  0  0  0  0  0  0
    0.4775    7.0740    0.0000 C   0  0  0  0  0  0  0  0  0  0  0  0
    3.3037    4.2221    0.0000 N   0  0  0  0  0  0  0  0  0  0  0  0
    2.9918    2.7549    0.0000 C   0  0  0  0  0  0  0  0  0  0  0  0
    3.9955    1.6402    0.0000 C   0  0  0  0  0  0  0  0  0  0  0  0
    3.5320    0.2136    0.0000 C   0  0  0  0  0  0  0  0  0  0  0  0
    4.5356   -0.9012    0.0000 C   0  0  0  0  0  0  0  0  0  0  0  0
    6.0029   -0.5893    0.0000 N   0  0  0  0  0  0  0  0  0  0  0  0
    6.4664    0.8373    0.0000 C   0  0  0  0  0  0  0  0  0  0  0  0
    5.4627    1.9520    0.0000 C   0  0  0  0  0  0  0  0  0  0  0  0
   -0.7500    1.2990    0.0000 C   0  0  0  0  0  0  0  0  0  0  0  0
   -1.5000    0.0000    0.0000 C   0  0  0  0  0  0  0  0  0  0  0  0
   -0.7500   -1.2990    0.0000 C   0  0  0  0  0  0  0  0  0  0  0  0
  1  2  1  0
  2  3  2  3
  3  4  1  0
  4  5  1  0
  5  6  1  0
  6  7  2  0
  7  8  1  0
  8  9  1  0
  9 10  1  0
 10 11  2  0
 11 12  1  0
 12 13  1  0
 13 14  1  0
 14 15  1  0
 15 16  1  0
 16 17  1  0
 11 18  1  0
 18 19  1  0
 19 20  1  0
 20 21  2  0
 21 22  1  0
 22 23  2  0
 23 24  1  0
 24 25  2  0
  8 26  2  0
 26 27  1  0
 27 28  2  0
 28  3  1  0
 28  6  1  0
 19  9  2  0
 25 20  1  0
 17 12  1  0
M  END
>  <Compound_ID>  (291) 
CHEMBL1794071

>  <Molecule Name>  (291) 
nan

>  <Molecular Weight>  (291) 
409.92

>  <AlogP>  (291) 
3.73

>  <Smiles>  (291) 
ON=C1CCc2cc(-c3nc(C4CCNCC4)[nH]c3-c3ccncc3)ccc21

>  <Standard Type>  (291) 
Inhibition

>  <Standard Relation>  (291) 
'='

>  <Standard Units>  (291) 
%

>  <Standard Value>  (291) 
2.82

>  <Assay ChEMBL ID>  (291) 
CHEMBL1962174

>  <Assay Description>  (291) 
GSK_PKIS: SYK mean inhibition at 0.1 uM [Nanosyn]

>  <BAO Format ID>  (291) 
BAO_0000357

>  <BAO Label>  (291) 
single protein format

>  <Assay Organism>  (291) 
None

>  <Target ChEMBL ID>  (291) 
CHEMBL2599

>  <Target Name>  (291) 
Tyrosine-protein kinase SYK

>  <Target Organism>  (291) 
Homo sapiens

>  <Target Type>  (291) 
SINGLE PROTEIN

>  <Document ChEMBL ID>  (291) 
CHEMBL1961873

>  <Source Description>  (291) 
GSK Published Kinase Inhibitor Set

>  <Document Journal>  (291) 
nan

>  <Document Year>  (291) 
nan

>  <Active>  (291) 
0.0

>  <bits>  (291) 
<rdkit.DataStructs.cDataStructs.ExplicitBitVect object at 0x00000193F3413290>

>  <Group>  (291) 
G2

$$$$

     RDKit          2D

 22 24  0  0  0  0  0  0  0  0999 V2000
    3.0000    0.0000    0.0000 C   0  0  0  0  0  0  0  0  0  0  0  0
    1.5000    0.0000    0.0000 C   0  0  0  0  0  0  0  0  0  0  0  0
    0.7500   -1.2990    0.0000 C   0  0  0  0  0  0  0  0  0  0  0  0
   -0.7500   -1.2990    0.0000 C   0  0  0  0  0  0  0  0  0  0  0  0
   -1.5000   -2.5981    0.0000 O   0  0  0  0  0  0  0  0  0  0  0  0
   -1.5000    0.0000    0.0000 C   0  0  0  0  0  0  0  0  0  0  0  0
   -0.7500    1.2990    0.0000 C   0  0  0  0  0  0  0  0  0  0  0  0
   -1.5000    2.5981    0.0000 C   0  0  0  0  0  0  0  0  0  0  0  0
    0.7500    1.2990    0.0000 C   0  0  0  0  0  0  0  0  0  0  0  0
    1.5000    2.5981    0.0000 C   0  0  0  0  0  0  0  0  0  0  0  0
    3.0000    2.5981    0.0000 C   0  0  0  0  0  0  0  0  0  0  0  0
    3.7500    3.8971    0.0000 C   0  0  0  0  0  0  0  0  0  0  0  0
    5.2500    3.8971    0.0000 C   0  0  0  0  0  0  0  0  0  0  0  0
    6.0000    5.1962    0.0000 N   0  0  0  0  0  0  0  0  0  0  0  0
    5.2500    6.4952    0.0000 C   0  0  0  0  0  0  0  0  0  0  0  0
    3.7500    6.4952    0.0000 C   0  0  0  0  0  0  0  0  0  0  0  0
    3.0000    7.7942    0.0000 C   0  0  0  0  0  0  0  0  0  0  0  0
    1.5082    7.9510    0.0000 N   0  0  0  0  0  0  0  0  0  0  0  0
    1.1963    9.4182    0.0000 N   0  0  0  0  0  0  0  0  0  0  0  0
    2.4954   10.1682    0.0000 N   0  0  0  0  0  0  0  0  0  0  0  0
    3.6101    9.1645    0.0000 N   0  0  0  0  0  0  0  0  0  0  0  0
    3.0000    5.1962    0.0000 C   0  0  0  0  0  0  0  0  0  0  0  0
  1  2  1  0
  2  3  2  0
  3  4  1  0
  4  5  1  0
  4  6  2  0
  6  7  1  0
  7  8  1  0
  7  9  2  0
  9 10  1  0
 10 11  2  0
 11 12  1  0
 12 13  2  0
 13 14  1  0
 14 15  2  0
 15 16  1  0
 16 17  1  0
 17 18  1  0
 18 19  2  0
 19 20  1  0
 20 21  1  0
 16 22  2  0
  9  2  1  0
 22 12  1  0
 21 17  2  0
M  END
>  <Compound_ID>  (292) 
CHEMBL1909352

>  <Molecule Name>  (292) 
GW441806A

>  <Molecular Weight>  (292) 
329.79

>  <AlogP>  (292) 
2.75

>  <Smiles>  (292) 
Cc1cc(O)cc(C)c1/C=C/c1cncc(-c2nn[nH]n2)c1

>  <Standard Type>  (292) 
Inhibition

>  <Standard Relation>  (292) 
'='

>  <Standard Units>  (292) 
%

>  <Standard Value>  (292) 
-1.42

>  <Assay ChEMBL ID>  (292) 
CHEMBL1962175

>  <Assay Description>  (292) 
GSK_PKIS: SYK mean inhibition at 1 uM [Nanosyn]

>  <BAO Format ID>  (292) 
BAO_0000357

>  <BAO Label>  (292) 
single protein format

>  <Assay Organism>  (292) 
None

>  <Target ChEMBL ID>  (292) 
CHEMBL2599

>  <Target Name>  (292) 
Tyrosine-protein kinase SYK

>  <Target Organism>  (292) 
Homo sapiens

>  <Target Type>  (292) 
SINGLE PROTEIN

>  <Document ChEMBL ID>  (292) 
CHEMBL1961873

>  <Source Description>  (292) 
GSK Published Kinase Inhibitor Set

>  <Document Journal>  (292) 
nan

>  <Document Year>  (292) 
nan

>  <Active>  (292) 
0.0

>  <bits>  (292) 
<rdkit.DataStructs.cDataStructs.ExplicitBitVect object at 0x00000193F3412420>

>  <Group>  (292) 
G2

$$$$

     RDKit          2D

 21 24  0  0  0  0  0  0  0  0999 V2000
   -2.6401   -5.5255    0.0000 N   0  0  0  0  0  0  0  0  0  0  0  0
   -1.2135   -5.9890    0.0000 C   0  0  0  0  0  0  0  0  0  0  0  0
   -0.7500   -7.4156    0.0000 N   0  0  0  0  0  0  0  0  0  0  0  0
    0.7500   -7.4156    0.0000 O   0  0  0  0  0  0  0  0  0  0  0  0
    1.2135   -5.9890    0.0000 N   0  0  0  0  0  0  0  0  0  0  0  0
   -0.0000   -5.1073    0.0000 C   0  0  0  0  0  0  0  0  0  0  0  0
   -0.0000   -3.6073    0.0000 C   0  0  0  0  0  0  0  0  0  0  0  0
    1.2135   -2.7256    0.0000 N   0  0  0  0  0  0  0  0  0  0  0  0
    0.7500   -1.2990    0.0000 C   0  0  0  0  0  0  0  0  0  0  0  0
    1.5000    0.0000    0.0000 C   0  0  0  0  0  0  0  0  0  0  0  0
    0.7500    1.2990    0.0000 N   0  0  0  0  0  0  0  0  0  0  0  0
   -0.7500    1.2990    0.0000 C   0  0  0  0  0  0  0  0  0  0  0  0
   -1.5000    0.0000    0.0000 C   0  0  0  0  0  0  0  0  0  0  0  0
   -0.7500   -1.2990    0.0000 C   0  0  0  0  0  0  0  0  0  0  0  0
   -1.2135   -2.7256    0.0000 N   0  0  0  0  0  0  0  0  0  0  0  0
   -2.6401   -3.1891    0.0000 C   0  0  0  0  0  0  0  0  0  0  0  0
   -3.7548   -2.1855    0.0000 C   0  0  0  0  0  0  0  0  0  0  0  0
   -5.1814   -2.6490    0.0000 C   0  0  0  0  0  0  0  0  0  0  0  0
   -5.4933   -4.1162    0.0000 C   0  0  0  0  0  0  0  0  0  0  0  0
   -4.3786   -5.1199    0.0000 C   0  0  0  0  0  0  0  0  0  0  0  0
   -2.9520   -4.6564    0.0000 C   0  0  0  0  0  0  0  0  0  0  0  0
  1  2  1  0
  2  3  2  0
  3  4  1  0
  4  5  1  0
  5  6  2  0
  6  7  1  0
  7  8  2  0
  8  9  1  0
  9 10  2  0
 10 11  1  0
 11 12  2  0
 12 13  1  0
 13 14  2  0
 14 15  1  0
 15 16  1  0
 16 17  1  0
 17 18  1  0
 18 19  1  0
 19 20  1  0
 20 21  1  0
  6  2  1  0
 15  7  1  0
 21 16  1  0
 14  9  1  0
M  END
>  <Compound_ID>  (293) 
CHEMBL189231

>  <Molecule Name>  (293) 
nan

>  <Molecular Weight>  (293) 
284.32

>  <AlogP>  (293) 
2.57

>  <Smiles>  (293) 
Nc1nonc1-c1nc2cnccc2n1C1CCCCC1

>  <Standard Type>  (293) 
Inhibition

>  <Standard Relation>  (293) 
'='

>  <Standard Units>  (293) 
%

>  <Standard Value>  (293) 
-0.01

>  <Assay ChEMBL ID>  (293) 
CHEMBL1962175

>  <Assay Description>  (293) 
GSK_PKIS: SYK mean inhibition at 1 uM [Nanosyn]

>  <BAO Format ID>  (293) 
BAO_0000357

>  <BAO Label>  (293) 
single protein format

>  <Assay Organism>  (293) 
None

>  <Target ChEMBL ID>  (293) 
CHEMBL2599

>  <Target Name>  (293) 
Tyrosine-protein kinase SYK

>  <Target Organism>  (293) 
Homo sapiens

>  <Target Type>  (293) 
SINGLE PROTEIN

>  <Document ChEMBL ID>  (293) 
CHEMBL1961873

>  <Source Description>  (293) 
GSK Published Kinase Inhibitor Set

>  <Document Journal>  (293) 
nan

>  <Document Year>  (293) 
nan

>  <Active>  (293) 
0.0

>  <bits>  (293) 
<rdkit.DataStructs.cDataStructs.ExplicitBitVect object at 0x00000193F3411D90>

>  <Group>  (293) 
G2

$$$$

     RDKit          2D

 27 30  0  0  0  0  0  0  0  0999 V2000
    3.0000    0.0000    0.0000 C   0  0  0  0  0  0  0  0  0  0  0  0
    1.5000    0.0000    0.0000 C   0  0  0  0  0  0  0  0  0  0  0  0
    0.7500   -1.2990    0.0000 C   0  0  0  0  0  0  0  0  0  0  0  0
   -0.7500   -1.2990    0.0000 C   0  0  0  0  0  0  0  0  0  0  0  0
   -1.5000   -2.5981    0.0000 C   0  0  0  0  0  0  0  0  0  0  0  0
   -3.0000   -2.5981    0.0000 C   0  0  0  0  0  0  0  0  0  0  0  0
   -3.7500   -3.8971    0.0000 C   0  0  0  0  0  0  0  0  0  0  0  0
   -3.0000   -5.1962    0.0000 C   0  0  0  0  0  0  0  0  0  0  0  0
   -1.5000   -5.1962    0.0000 C   0  0  0  0  0  0  0  0  0  0  0  0
   -0.7500   -3.8971    0.0000 N   0  0  0  0  0  0  0  0  0  0  0  0
   -1.5000    0.0000    0.0000 C   0  0  0  0  0  0  0  0  0  0  0  0
   -0.7500    1.2990    0.0000 C   0  0  0  0  0  0  0  0  0  0  0  0
   -1.5000    2.5981    0.0000 C   0  0  0  0  0  0  0  0  0  0  0  0
    0.7500    1.2990    0.0000 C   0  0  0  0  0  0  0  0  0  0  0  0
    1.5000    2.5981    0.0000 C   0  0  0  0  0  0  0  0  0  0  0  0
    3.0000    2.5981    0.0000 C   0  0  0  0  0  0  0  0  0  0  0  0
    3.7500    3.8971    0.0000 C   0  0  0  0  0  0  0  0  0  0  0  0
    5.2500    3.8971    0.0000 C   0  0  0  0  0  0  0  0  0  0  0  0
    6.0000    5.1962    0.0000 N   0  0  0  0  0  0  0  0  0  0  0  0
    5.2500    6.4952    0.0000 C   0  0  0  0  0  0  0  0  0  0  0  0
    3.7500    6.4952    0.0000 C   0  0  0  0  0  0  0  0  0  0  0  0
    3.0000    7.7942    0.0000 C   0  0  0  0  0  0  0  0  0  0  0  0
    1.5082    7.9510    0.0000 N   0  0  0  0  0  0  0  0  0  0  0  0
    1.1963    9.4182    0.0000 N   0  0  0  0  0  0  0  0  0  0  0  0
    2.4954   10.1682    0.0000 N   0  0  0  0  0  0  0  0  0  0  0  0
    3.6101    9.1645    0.0000 N   0  0  0  0  0  0  0  0  0  0  0  0
    3.0000    5.1962    0.0000 C   0  0  0  0  0  0  0  0  0  0  0  0
  1  2  1  0
  2  3  2  0
  3  4  1  0
  4  5  1  0
  5  6  2  0
  6  7  1  0
  7  8  2  0
  8  9  1  0
  9 10  2  0
  4 11  2  0
 11 12  1  0
 12 13  1  0
 12 14  2  0
 14 15  1  0
 15 16  2  0
 16 17  1  0
 17 18  2  0
 18 19  1  0
 19 20  2  0
 20 21  1  0
 21 22  1  0
 22 23  1  0
 23 24  2  0
 24 25  1  0
 25 26  1  0
 21 27  2  0
 14  2  1  0
 27 17  1  0
 10  5  1  0
 26 22  2  0
M  END
>  <Compound_ID>  (294) 
CHEMBL1909354

>  <Molecule Name>  (294) 
GW459057A

>  <Molecular Weight>  (294) 
390.88

>  <AlogP>  (294) 
4.11

>  <Smiles>  (294) 
Cc1cc(-c2ccccn2)cc(C)c1/C=C/c1cncc(-c2nn[nH]n2)c1

>  <Standard Type>  (294) 
Inhibition

>  <Standard Relation>  (294) 
'='

>  <Standard Units>  (294) 
%

>  <Standard Value>  (294) 
-0.33

>  <Assay ChEMBL ID>  (294) 
CHEMBL1962174

>  <Assay Description>  (294) 
GSK_PKIS: SYK mean inhibition at 0.1 uM [Nanosyn]

>  <BAO Format ID>  (294) 
BAO_0000357

>  <BAO Label>  (294) 
single protein format

>  <Assay Organism>  (294) 
None

>  <Target ChEMBL ID>  (294) 
CHEMBL2599

>  <Target Name>  (294) 
Tyrosine-protein kinase SYK

>  <Target Organism>  (294) 
Homo sapiens

>  <Target Type>  (294) 
SINGLE PROTEIN

>  <Document ChEMBL ID>  (294) 
CHEMBL1961873

>  <Source Description>  (294) 
GSK Published Kinase Inhibitor Set

>  <Document Journal>  (294) 
nan

>  <Document Year>  (294) 
nan

>  <Active>  (294) 
0.0

>  <bits>  (294) 
<rdkit.DataStructs.cDataStructs.ExplicitBitVect object at 0x00000193F3411BD0>

>  <Group>  (294) 
G2

$$$$

     RDKit          2D

 21 23  0  0  0  0  0  0  0  0999 V2000
   -0.0000   -5.1073    0.0000 O   0  0  0  0  0  0  0  0  0  0  0  0
   -0.0000   -3.6073    0.0000 C   0  0  0  0  0  0  0  0  0  0  0  0
    1.2135   -2.7256    0.0000 N   0  0  0  0  0  0  0  0  0  0  0  0
    0.7500   -1.2990    0.0000 C   0  0  0  0  0  0  0  0  0  0  0  0
    1.5000    0.0000    0.0000 C   0  0  0  0  0  0  0  0  0  0  0  0
    0.7500    1.2990    0.0000 C   0  0  0  0  0  0  0  0  0  0  0  0
   -0.7500    1.2990    0.0000 C   0  0  0  0  0  0  0  0  0  0  0  0
   -1.5000    2.5981    0.0000 I   0  0  0  0  0  0  0  0  0  0  0  0
   -1.5000    0.0000    0.0000 C   0  0  0  0  0  0  0  0  0  0  0  0
   -0.7500   -1.2990    0.0000 C   0  0  0  0  0  0  0  0  0  0  0  0
   -1.2135   -2.7256    0.0000 C   0  0  0  0  0  0  0  0  0  0  0  0
   -2.6401   -3.1891    0.0000 C   0  0  0  0  0  0  0  0  0  0  0  0
   -2.9520   -4.6564    0.0000 C   0  0  0  0  0  0  0  0  0  0  0  0
   -4.3786   -5.1199    0.0000 C   0  0  0  0  0  0  0  0  0  0  0  0
   -4.6904   -6.5871    0.0000 C   0  0  0  0  0  0  0  0  0  0  0  0
   -6.1170   -7.0506    0.0000 Br  0  0  0  0  0  0  0  0  0  0  0  0
   -3.5757   -7.5908    0.0000 C   0  0  0  0  0  0  0  0  0  0  0  0
   -3.8876   -9.0580    0.0000 O   0  0  0  0  0  0  0  0  0  0  0  0
   -2.1491   -7.1273    0.0000 C   0  0  0  0  0  0  0  0  0  0  0  0
   -1.0344   -8.1310    0.0000 Br  0  0  0  0  0  0  0  0  0  0  0  0
   -1.8373   -5.6601    0.0000 C   0  0  0  0  0  0  0  0  0  0  0  0
  1  2  2  0
  2  3  1  0
  3  4  1  0
  4  5  2  0
  5  6  1  0
  6  7  2  0
  7  8  1  0
  7  9  1  0
  9 10  2  0
 10 11  1  0
 11 12  2  3
 12 13  1  0
 13 14  2  0
 14 15  1  0
 15 16  1  0
 15 17  2  0
 17 18  1  0
 17 19  1  0
 19 20  1  0
 19 21  2  0
 11  2  1  0
 21 13  1  0
 10  4  1  0
M  END
>  <Compound_ID>  (295) 
CHEMBL1880739

>  <Molecule Name>  (295) 
GW305074X

>  <Molecular Weight>  (295) 
520.95

>  <AlogP>  (295) 
5.01

>  <Smiles>  (295) 
O=C1Nc2ccc(I)cc2C1=Cc1cc(Br)c(O)c(Br)c1

>  <Standard Type>  (295) 
Inhibition

>  <Standard Relation>  (295) 
'='

>  <Standard Units>  (295) 
%

>  <Standard Value>  (295) 
1.56

>  <Assay ChEMBL ID>  (295) 
CHEMBL1962175

>  <Assay Description>  (295) 
GSK_PKIS: SYK mean inhibition at 1 uM [Nanosyn]

>  <BAO Format ID>  (295) 
BAO_0000357

>  <BAO Label>  (295) 
single protein format

>  <Assay Organism>  (295) 
None

>  <Target ChEMBL ID>  (295) 
CHEMBL2599

>  <Target Name>  (295) 
Tyrosine-protein kinase SYK

>  <Target Organism>  (295) 
Homo sapiens

>  <Target Type>  (295) 
SINGLE PROTEIN

>  <Document ChEMBL ID>  (295) 
CHEMBL1961873

>  <Source Description>  (295) 
GSK Published Kinase Inhibitor Set

>  <Document Journal>  (295) 
nan

>  <Document Year>  (295) 
nan

>  <Active>  (295) 
0.0

>  <bits>  (295) 
<rdkit.DataStructs.cDataStructs.ExplicitBitVect object at 0x00000193F3410660>

>  <Group>  (295) 
G2

$$$$

     RDKit          2D

 36 39  0  0  0  0  0  0  0  0999 V2000
   -2.5981   -8.1073    0.0000 C   0  0  0  0  0  0  0  0  0  0  0  0
   -1.2990   -7.3573    0.0000 O   0  0  0  0  0  0  0  0  0  0  0  0
   -1.2990   -5.8573    0.0000 C   0  0  0  0  0  0  0  0  0  0  0  0
   -2.5981   -5.1073    0.0000 O   0  0  0  0  0  0  0  0  0  0  0  0
   -0.0000   -5.1073    0.0000 N   0  0  0  0  0  0  0  0  0  0  0  0
   -0.0000   -3.6073    0.0000 C   0  0  0  0  0  0  0  0  0  0  0  0
    1.2135   -2.7256    0.0000 N   0  0  0  0  0  0  0  0  0  0  0  0
    0.7500   -1.2990    0.0000 C   0  0  0  0  0  0  0  0  0  0  0  0
    1.5000    0.0000    0.0000 C   0  0  0  0  0  0  0  0  0  0  0  0
    0.7500    1.2990    0.0000 C   0  0  0  0  0  0  0  0  0  0  0  0
   -0.7500    1.2990    0.0000 C   0  0  0  0  0  0  0  0  0  0  0  0
   -1.5000    2.5981    0.0000 O   0  0  0  0  0  0  0  0  0  0  0  0
   -0.7500    3.8971    0.0000 C   0  0  0  0  0  0  0  0  0  0  0  0
    0.7500    3.8971    0.0000 C   0  0  0  0  0  0  0  0  0  0  0  0
    1.5000    5.1962    0.0000 C   0  0  0  0  0  0  0  0  0  0  0  0
    0.7500    6.4952    0.0000 C   0  0  0  0  0  0  0  0  0  0  0  0
    1.5000    7.7942    0.0000 N   0  0  0  0  0  0  0  0  0  0  0  0
    3.0000    7.7942    0.0000 C   0  0  0  0  0  0  0  0  0  0  0  0
    3.7500    6.4952    0.0000 O   0  0  0  0  0  0  0  0  0  0  0  0
    3.7500    9.0933    0.0000 N   0  0  0  0  0  0  0  0  0  0  0  0
    5.2500    9.0933    0.0000 C   0  0  0  0  0  0  0  0  0  0  0  0
    6.0000    7.7942    0.0000 C   0  0  0  0  0  0  0  0  0  0  0  0
    7.5000    7.7942    0.0000 C   0  0  0  0  0  0  0  0  0  0  0  0
    8.2500    6.4952    0.0000 C   0  0  0  0  0  0  0  0  0  0  0  0
    9.0000    5.1962    0.0000 F   0  0  0  0  0  0  0  0  0  0  0  0
    6.9510    5.7452    0.0000 F   0  0  0  0  0  0  0  0  0  0  0  0
    9.5490    7.2452    0.0000 F   0  0  0  0  0  0  0  0  0  0  0  0
    8.2500    9.0933    0.0000 C   0  0  0  0  0  0  0  0  0  0  0  0
    7.5000   10.3923    0.0000 C   0  0  0  0  0  0  0  0  0  0  0  0
    6.0000   10.3923    0.0000 C   0  0  0  0  0  0  0  0  0  0  0  0
    5.2500   11.6913    0.0000 F   0  0  0  0  0  0  0  0  0  0  0  0
   -0.7500    6.4952    0.0000 C   0  0  0  0  0  0  0  0  0  0  0  0
   -1.5000    5.1962    0.0000 C   0  0  0  0  0  0  0  0  0  0  0  0
   -1.5000    0.0000    0.0000 C   0  0  0  0  0  0  0  0  0  0  0  0
   -0.7500   -1.2990    0.0000 C   0  0  0  0  0  0  0  0  0  0  0  0
   -1.2135   -2.7256    0.0000 S   0  0  0  0  0  0  0  0  0  0  0  0
  1  2  1  0
  2  3  1  0
  3  4  2  0
  3  5  1  0
  5  6  1  0
  6  7  2  0
  7  8  1  0
  8  9  2  0
  9 10  1  0
 10 11  2  0
 11 12  1  0
 12 13  1  0
 13 14  2  0
 14 15  1  0
 15 16  2  0
 16 17  1  0
 17 18  1  0
 18 19  2  0
 18 20  1  0
 20 21  1  0
 21 22  2  0
 22 23  1  0
 23 24  1  0
 24 25  1  0
 24 26  1  0
 24 27  1  0
 23 28  2  0
 28 29  1  0
 29 30  2  0
 30 31  1  0
 16 32  1  0
 32 33  2  0
 11 34  1  0
 34 35  2  0
 35 36  1  0
 36  6  1  0
 35  8  1  0
 33 13  1  0
 30 21  1  0
M  END
>  <Compound_ID>  (296) 
CHEMBL1909369

>  <Molecule Name>  (296) 
GW693917A

>  <Molecular Weight>  (296) 
556.93

>  <AlogP>  (296) 
7.07

>  <Smiles>  (296) 
COC(=O)Nc1nc2ccc(Oc3ccc(NC(=O)Nc4cc(C(F)(F)F)ccc4F)cc3)cc2s1

>  <Standard Type>  (296) 
Inhibition

>  <Standard Relation>  (296) 
'='

>  <Standard Units>  (296) 
%

>  <Standard Value>  (296) 
0.26

>  <Assay ChEMBL ID>  (296) 
CHEMBL1962175

>  <Assay Description>  (296) 
GSK_PKIS: SYK mean inhibition at 1 uM [Nanosyn]

>  <BAO Format ID>  (296) 
BAO_0000357

>  <BAO Label>  (296) 
single protein format

>  <Assay Organism>  (296) 
None

>  <Target ChEMBL ID>  (296) 
CHEMBL2599

>  <Target Name>  (296) 
Tyrosine-protein kinase SYK

>  <Target Organism>  (296) 
Homo sapiens

>  <Target Type>  (296) 
SINGLE PROTEIN

>  <Document ChEMBL ID>  (296) 
CHEMBL1961873

>  <Source Description>  (296) 
GSK Published Kinase Inhibitor Set

>  <Document Journal>  (296) 
nan

>  <Document Year>  (296) 
nan

>  <Active>  (296) 
0.0

>  <bits>  (296) 
<rdkit.DataStructs.cDataStructs.ExplicitBitVect object at 0x00000193F34112A0>

>  <Group>  (296) 
G2

$$$$

     RDKit          2D

 27 30  0  0  0  0  0  0  0  0999 V2000
    4.1791    8.6583    0.0000 C   0  0  0  0  0  0  0  0  0  0  0  0
    3.7156    7.2317    0.0000 N   0  0  0  0  0  0  0  0  0  0  0  0
    4.7193    6.1170    0.0000 C   0  0  0  0  0  0  0  0  0  0  0  0
    4.2558    4.6904    0.0000 C   0  0  0  0  0  0  0  0  0  0  0  0
    2.7886    4.3786    0.0000 C   0  0  0  0  0  0  0  0  0  0  0  0
    2.3250    2.9520    0.0000 C   0  0  0  0  0  0  0  0  0  0  0  0
    3.3287    1.8373    0.0000 O   0  0  0  0  0  0  0  0  0  0  0  0
    0.8578    2.6401    0.0000 N   0  0  0  0  0  0  0  0  0  0  0  0
    0.3943    1.2135    0.0000 C   0  0  0  0  0  0  0  0  0  0  0  0
    1.2760    0.0000    0.0000 N   0  0  0  0  0  0  0  0  0  0  0  0
    0.3943   -1.2135    0.0000 N   0  0  0  0  0  0  0  0  0  0  0  0
   -1.0323   -0.7500    0.0000 C   0  0  0  0  0  0  0  0  0  0  0  0
   -2.3313   -1.5000    0.0000 N   0  0  0  0  0  0  0  0  0  0  0  0
   -3.6304   -0.7500    0.0000 C   0  0  0  0  0  0  0  0  0  0  0  0
   -4.9294   -1.5000    0.0000 C   0  0  0  0  0  0  0  0  0  0  0  0
   -6.2284   -0.7500    0.0000 C   0  0  0  0  0  0  0  0  0  0  0  0
   -7.5275   -1.5000    0.0000 C   0  0  0  0  0  0  0  0  0  0  0  0
   -7.5275   -3.0000    0.0000 C   0  0  0  0  0  0  0  0  0  0  0  0
   -8.8265   -3.7500    0.0000 O   0  0  0  0  0  0  0  0  0  0  0  0
   -6.2284   -3.7500    0.0000 C   0  0  0  0  0  0  0  0  0  0  0  0
   -4.9294   -3.0000    0.0000 C   0  0  0  0  0  0  0  0  0  0  0  0
   -3.6304    0.7500    0.0000 C   0  0  0  0  0  0  0  0  0  0  0  0
   -4.9294    1.5000    0.0000 Br  0  0  0  0  0  0  0  0  0  0  0  0
   -2.3313    1.5000    0.0000 C   0  0  0  0  0  0  0  0  0  0  0  0
   -1.0323    0.7500    0.0000 C   0  0  0  0  0  0  0  0  0  0  0  0
    1.7849    5.4933    0.0000 C   0  0  0  0  0  0  0  0  0  0  0  0
    2.2484    6.9199    0.0000 C   0  0  0  0  0  0  0  0  0  0  0  0
  1  2  1  0
  2  3  1  0
  3  4  1  0
  4  5  1  0
  5  6  1  0
  6  7  2  0
  6  8  1  0
  8  9  1  0
  9 10  2  0
 10 11  1  0
 11 12  1  0
 12 13  2  0
 13 14  1  0
 14 15  1  0
 15 16  2  0
 16 17  1  0
 17 18  2  0
 18 19  1  0
 18 20  1  0
 20 21  2  0
 14 22  2  0
 22 23  1  0
 22 24  1  0
 24 25  2  0
  5 26  1  0
 26 27  1  0
 27  2  1  0
 25  9  1  0
 25 12  1  0
 21 15  1  0
M  END
>  <Compound_ID>  (297) 
CHEMBL1909347

>  <Molecule Name>  (297) 
nan

>  <Molecular Weight>  (297) 
546.38

>  <AlogP>  (297) 
3.37

>  <Smiles>  (297) 
CN1CCC(C(=O)Nc2n[nH]c3nc(-c4ccc(O)cc4)c(Br)cc23)CC1

>  <Standard Type>  (297) 
Inhibition

>  <Standard Relation>  (297) 
'='

>  <Standard Units>  (297) 
%

>  <Standard Value>  (297) 
0.42

>  <Assay ChEMBL ID>  (297) 
CHEMBL1962175

>  <Assay Description>  (297) 
GSK_PKIS: SYK mean inhibition at 1 uM [Nanosyn]

>  <BAO Format ID>  (297) 
BAO_0000357

>  <BAO Label>  (297) 
single protein format

>  <Assay Organism>  (297) 
None

>  <Target ChEMBL ID>  (297) 
CHEMBL2599

>  <Target Name>  (297) 
Tyrosine-protein kinase SYK

>  <Target Organism>  (297) 
Homo sapiens

>  <Target Type>  (297) 
SINGLE PROTEIN

>  <Document ChEMBL ID>  (297) 
CHEMBL1961873

>  <Source Description>  (297) 
GSK Published Kinase Inhibitor Set

>  <Document Journal>  (297) 
nan

>  <Document Year>  (297) 
nan

>  <Active>  (297) 
0.0

>  <bits>  (297) 
<rdkit.DataStructs.cDataStructs.ExplicitBitVect object at 0x00000193F3411F50>

>  <Group>  (297) 
G2

$$$$

     RDKit          2D

 35 38  0  0  0  0  0  0  0  0999 V2000
    5.2500   -1.2990    0.0000 C   0  0  0  0  0  0  0  0  0  0  0  0
    3.7500   -1.2990    0.0000 C   0  0  0  0  0  0  0  0  0  0  0  0
    3.0000   -2.5981    0.0000 O   0  0  0  0  0  0  0  0  0  0  0  0
    3.0000    0.0000    0.0000 N   0  0  0  0  0  0  0  0  0  0  0  0
    1.5000    0.0000    0.0000 C   0  0  0  0  0  0  0  0  0  0  0  0
    0.7500   -1.2990    0.0000 C   0  0  0  0  0  0  0  0  0  0  0  0
   -0.7500   -1.2990    0.0000 C   0  0  0  0  0  0  0  0  0  0  0  0
   -1.5000    0.0000    0.0000 C   0  0  0  0  0  0  0  0  0  0  0  0
   -0.7500    1.2990    0.0000 C   0  0  0  0  0  0  0  0  0  0  0  0
   -1.5000    2.5981    0.0000 C   0  0  0  0  0  0  0  0  0  0  0  0
   -2.2500    3.8971    0.0000 C   0  0  0  0  0  0  0  0  0  0  0  0
   -3.0000    5.1962    0.0000 C   0  0  0  0  0  0  0  0  0  0  0  0
   -2.2500    6.4952    0.0000 C   0  0  0  0  0  0  0  0  0  0  0  0
   -3.0000    7.7942    0.0000 N   0  0  0  0  0  0  0  0  0  0  0  0
   -4.5000    7.7942    0.0000 C   0  0  0  0  0  0  0  0  0  0  0  0
   -5.2500    6.4952    0.0000 N   0  0  0  0  0  0  0  0  0  0  0  0
   -4.5000    5.1962    0.0000 C   0  0  0  0  0  0  0  0  0  0  0  0
   -5.2500    3.8971    0.0000 N   0  0  0  0  0  0  0  0  0  0  0  0
   -6.7500    3.8971    0.0000 C   0  0  0  0  0  0  0  0  0  0  0  0
   -7.5000    5.1962    0.0000 C   0  0  0  0  0  0  0  0  0  0  0  0
   -9.0000    5.1962    0.0000 C   0  0  0  0  0  0  0  0  0  0  0  0
   -9.7500    3.8971    0.0000 C   0  0  0  0  0  0  0  0  0  0  0  0
  -11.2500    3.8971    0.0000 O   0  0  0  0  0  0  0  0  0  0  0  0
  -12.0000    5.1962    0.0000 C   0  0  0  0  0  0  0  0  0  0  0  0
  -13.5000    5.1962    0.0000 C   0  0  0  0  0  0  0  0  0  0  0  0
  -14.2500    6.4952    0.0000 C   0  0  0  0  0  0  0  0  0  0  0  0
  -15.7500    6.4952    0.0000 C   0  0  0  0  0  0  0  0  0  0  0  0
  -16.5000    5.1962    0.0000 C   0  0  0  0  0  0  0  0  0  0  0  0
  -15.7500    3.8971    0.0000 C   0  0  0  0  0  0  0  0  0  0  0  0
  -16.5000    2.5981    0.0000 F   0  0  0  0  0  0  0  0  0  0  0  0
  -14.2500    3.8971    0.0000 C   0  0  0  0  0  0  0  0  0  0  0  0
   -9.0000    2.5981    0.0000 C   0  0  0  0  0  0  0  0  0  0  0  0
   -9.7500    1.2990    0.0000 Cl  0  0  0  0  0  0  0  0  0  0  0  0
   -7.5000    2.5981    0.0000 C   0  0  0  0  0  0  0  0  0  0  0  0
    0.7500    1.2990    0.0000 N   0  0  0  0  0  0  0  0  0  0  0  0
  1  2  1  0
  2  3  2  0
  2  4  1  0
  4  5  1  0
  5  6  2  0
  6  7  1  0
  7  8  2  0
  8  9  1  0
  9 10  1  0
 10 11  3  0
 11 12  1  0
 12 13  2  0
 13 14  1  0
 14 15  2  0
 15 16  1  0
 16 17  2  0
 17 18  1  0
 18 19  1  0
 19 20  2  0
 20 21  1  0
 21 22  2  0
 22 23  1  0
 23 24  1  0
 24 25  1  0
 25 26  2  0
 26 27  1  0
 27 28  2  0
 28 29  1  0
 29 30  1  0
 29 31  2  0
 22 32  1  0
 32 33  1  0
 32 34  2  0
  9 35  2  0
 35  5  1  0
 17 12  1  0
 34 19  1  0
 31 25  1  0
M  END
>  <Compound_ID>  (298) 
CHEMBL205765

>  <Molecule Name>  (298) 
GW794726X

>  <Molecular Weight>  (298) 
487.92

>  <AlogP>  (298) 
5.34

>  <Smiles>  (298) 
CC(=O)Nc1cccc(C#Cc2cncnc2Nc2ccc(OCc3cccc(F)c3)c(Cl)c2)n1

>  <Standard Type>  (298) 
Inhibition

>  <Standard Relation>  (298) 
'='

>  <Standard Units>  (298) 
%

>  <Standard Value>  (298) 
-0.2

>  <Assay ChEMBL ID>  (298) 
CHEMBL1962175

>  <Assay Description>  (298) 
GSK_PKIS: SYK mean inhibition at 1 uM [Nanosyn]

>  <BAO Format ID>  (298) 
BAO_0000357

>  <BAO Label>  (298) 
single protein format

>  <Assay Organism>  (298) 
None

>  <Target ChEMBL ID>  (298) 
CHEMBL2599

>  <Target Name>  (298) 
Tyrosine-protein kinase SYK

>  <Target Organism>  (298) 
Homo sapiens

>  <Target Type>  (298) 
SINGLE PROTEIN

>  <Document ChEMBL ID>  (298) 
CHEMBL1961873

>  <Source Description>  (298) 
GSK Published Kinase Inhibitor Set

>  <Document Journal>  (298) 
nan

>  <Document Year>  (298) 
nan

>  <Active>  (298) 
0.0

>  <bits>  (298) 
<rdkit.DataStructs.cDataStructs.ExplicitBitVect object at 0x00000193F34129D0>

>  <Group>  (298) 
G2

$$$$

     RDKit          2D

 22 25  0  0  0  0  0  0  0  0999 V2000
   -8.3202   -4.8037    0.0000 C   0  0  0  0  0  0  0  0  0  0  0  0
   -7.0211   -4.0537    0.0000 C   0  0  0  0  0  0  0  0  0  0  0  0
   -7.0211   -2.5537    0.0000 C   0  0  0  0  0  0  0  0  0  0  0  0
   -5.7221   -1.8037    0.0000 C   0  0  0  0  0  0  0  0  0  0  0  0
   -4.4231   -2.5537    0.0000 C   0  0  0  0  0  0  0  0  0  0  0  0
   -3.1240   -1.8037    0.0000 C   0  0  0  0  0  0  0  0  0  0  0  0
   -1.7537   -2.4138    0.0000 C   0  0  0  0  0  0  0  0  0  0  0  0
   -0.7500   -1.2990    0.0000 C   0  0  0  0  0  0  0  0  0  0  0  0
    0.7500   -1.2990    0.0000 C   0  0  0  0  0  0  0  0  0  0  0  0
    1.5000   -2.5981    0.0000 N   0  0  0  0  0  0  0  0  0  0  0  0
    3.0000   -2.5981    0.0000 C   0  0  0  0  0  0  0  0  0  0  0  0
    3.7500   -1.2990    0.0000 O   0  0  0  0  0  0  0  0  0  0  0  0
    3.7500   -3.8971    0.0000 C   0  0  0  0  0  0  0  0  0  0  0  0
    5.0490   -4.6471    0.0000 C   0  0  0  0  0  0  0  0  0  0  0  0
    3.7500   -5.3971    0.0000 C   0  0  0  0  0  0  0  0  0  0  0  0
    1.5000    0.0000    0.0000 N   0  0  0  0  0  0  0  0  0  0  0  0
    0.7500    1.2990    0.0000 C   0  0  0  0  0  0  0  0  0  0  0  0
   -0.7500    1.2990    0.0000 N   0  0  0  0  0  0  0  0  0  0  0  0
   -1.5000    0.0000    0.0000 C   0  0  0  0  0  0  0  0  0  0  0  0
   -2.9672   -0.3119    0.0000 O   0  0  0  0  0  0  0  0  0  0  0  0
   -4.4231   -4.0537    0.0000 C   0  0  0  0  0  0  0  0  0  0  0  0
   -5.7221   -4.8037    0.0000 C   0  0  0  0  0  0  0  0  0  0  0  0
  1  2  1  0
  2  3  2  0
  3  4  1  0
  4  5  2  0
  5  6  1  0
  6  7  2  0
  7  8  1  0
  8  9  2  0
  9 10  1  0
 10 11  1  0
 11 12  2  0
 11 13  1  0
 13 14  1  0
 14 15  1  0
  9 16  1  0
 16 17  2  0
 17 18  1  0
 18 19  2  0
 19 20  1  0
  5 21  1  0
 21 22  2  0
 22  2  1  0
 20  6  1  0
 19  8  1  0
 15 13  1  0
M  END
>  <Compound_ID>  (299) 
CHEMBL182283

>  <Molecule Name>  (299) 
GW819230X

>  <Molecular Weight>  (299) 
293.33

>  <AlogP>  (299) 
3.55

>  <Smiles>  (299) 
Cc1ccc(-c2cc3c(NC(=O)C4CC4)ncnc3o2)cc1

>  <Standard Type>  (299) 
Inhibition

>  <Standard Relation>  (299) 
'='

>  <Standard Units>  (299) 
%

>  <Standard Value>  (299) 
-5.27

>  <Assay ChEMBL ID>  (299) 
CHEMBL1962174

>  <Assay Description>  (299) 
GSK_PKIS: SYK mean inhibition at 0.1 uM [Nanosyn]

>  <BAO Format ID>  (299) 
BAO_0000357

>  <BAO Label>  (299) 
single protein format

>  <Assay Organism>  (299) 
None

>  <Target ChEMBL ID>  (299) 
CHEMBL2599

>  <Target Name>  (299) 
Tyrosine-protein kinase SYK

>  <Target Organism>  (299) 
Homo sapiens

>  <Target Type>  (299) 
SINGLE PROTEIN

>  <Document ChEMBL ID>  (299) 
CHEMBL1961873

>  <Source Description>  (299) 
GSK Published Kinase Inhibitor Set

>  <Document Journal>  (299) 
nan

>  <Document Year>  (299) 
nan

>  <Active>  (299) 
0.0

>  <bits>  (299) 
<rdkit.DataStructs.cDataStructs.ExplicitBitVect object at 0x00000193F3412490>

>  <Group>  (299) 
G2

$$$$

     RDKit          2D

 30 33  0  0  0  0  0  0  0  0999 V2000
    4.6740   -4.8322    0.0000 O   0  0  0  0  0  0  0  0  0  0  0  0
    3.3037   -4.2221    0.0000 C   0  0  0  0  0  0  0  0  0  0  0  0
    2.9918   -2.7549    0.0000 N   0  0  0  0  0  0  0  0  0  0  0  0
    1.5000   -2.5981    0.0000 N   0  0  0  0  0  0  0  0  0  0  0  0
    0.7500   -1.2990    0.0000 C   0  0  0  0  0  0  0  0  0  0  0  0
    1.5000    0.0000    0.0000 C   0  0  0  0  0  0  0  0  0  0  0  0
    0.7500    1.2990    0.0000 C   0  0  0  0  0  0  0  0  0  0  0  0
   -0.7500    1.2990    0.0000 C   0  0  0  0  0  0  0  0  0  0  0  0
   -1.5000    2.5981    0.0000 F   0  0  0  0  0  0  0  0  0  0  0  0
   -1.5000    0.0000    0.0000 C   0  0  0  0  0  0  0  0  0  0  0  0
   -0.7500   -1.2990    0.0000 C   0  0  0  0  0  0  0  0  0  0  0  0
    0.8899   -3.9684    0.0000 C   0  0  0  0  0  0  0  0  0  0  0  0
   -0.5773   -4.2803    0.0000 O   0  0  0  0  0  0  0  0  0  0  0  0
    2.0046   -4.9721    0.0000 C   0  0  0  0  0  0  0  0  0  0  0  0
    1.8478   -6.4639    0.0000 C   0  0  0  0  0  0  0  0  0  0  0  0
    0.4775   -7.0740    0.0000 C   0  0  0  0  0  0  0  0  0  0  0  0
   -0.7360   -6.1923    0.0000 C   0  0  0  0  0  0  0  0  0  0  0  0
   -2.1063   -6.8024    0.0000 C   0  0  0  0  0  0  0  0  0  0  0  0
   -2.2631   -8.2942    0.0000 C   0  0  0  0  0  0  0  0  0  0  0  0
   -1.0496   -9.1759    0.0000 C   0  0  0  0  0  0  0  0  0  0  0  0
   -1.2064  -10.6676    0.0000 O   0  0  0  0  0  0  0  0  0  0  0  0
   -2.5767  -11.2778    0.0000 C   0  0  0  0  0  0  0  0  0  0  0  0
   -2.7335  -12.7695    0.0000 C   0  0  0  0  0  0  0  0  0  0  0  0
   -4.1038  -13.3796    0.0000 C   0  0  0  0  0  0  0  0  0  0  0  0
   -4.2606  -14.8714    0.0000 C   0  0  0  0  0  0  0  0  0  0  0  0
   -3.0471  -15.7531    0.0000 C   0  0  0  0  0  0  0  0  0  0  0  0
   -1.6768  -15.1430    0.0000 C   0  0  0  0  0  0  0  0  0  0  0  0
   -1.5200  -13.6512    0.0000 C   0  0  0  0  0  0  0  0  0  0  0  0
   -0.1497  -13.0411    0.0000 F   0  0  0  0  0  0  0  0  0  0  0  0
    0.3207   -8.5658    0.0000 C   0  0  0  0  0  0  0  0  0  0  0  0
  1  2  2  0
  2  3  1  0
  3  4  1  0
  4  5  1  0
  5  6  2  0
  6  7  1  0
  7  8  2  0
  8  9  1  0
  8 10  1  0
 10 11  2  0
  4 12  1  0
 12 13  2  0
 12 14  1  0
 14 15  2  0
 15 16  1  0
 16 17  2  0
 17 18  1  0
 18 19  2  0
 19 20  1  0
 20 21  1  0
 21 22  1  0
 22 23  1  0
 23 24  2  0
 24 25  1  0
 25 26  2  0
 26 27  1  0
 27 28  2  0
 28 29  1  0
 20 30  2  0
 14  2  1  0
 30 16  1  0
 11  5  1  0
 28 23  1  0
M  END
>  <Compound_ID>  (300) 
CHEMBL2029696

>  <Molecule Name>  (300) 
nan

>  <Molecular Weight>  (300) 
406.39

>  <AlogP>  (300) 
4.01

>  <Smiles>  (300) 
O=C1NN(c2ccc(F)cc2)C(=O)/C1=C\c1cccc(OCc2ccccc2F)c1

>  <Standard Type>  (300) 
Inhibition

>  <Standard Relation>  (300) 
'='

>  <Standard Units>  (300) 
%

>  <Standard Value>  (300) 
16.0

>  <Assay ChEMBL ID>  (300) 
CHEMBL3119789

>  <Assay Description>  (300) 
Inhibition of SYK (unknown origin) at 20 uM by radioactive ATP method

>  <BAO Format ID>  (300) 
BAO_0000357

>  <BAO Label>  (300) 
single protein format

>  <Assay Organism>  (300) 
Homo sapiens

>  <Target ChEMBL ID>  (300) 
CHEMBL2599

>  <Target Name>  (300) 
Tyrosine-protein kinase SYK

>  <Target Organism>  (300) 
Homo sapiens

>  <Target Type>  (300) 
SINGLE PROTEIN

>  <Document ChEMBL ID>  (300) 
CHEMBL3112544

>  <Source Description>  (300) 
Scientific Literature

>  <Document Journal>  (300) 
Bioorg Med Chem Lett

>  <Document Year>  (300) 
2013.0

>  <Active>  (300) 
0.0

>  <bits>  (300) 
<rdkit.DataStructs.cDataStructs.ExplicitBitVect object at 0x00000193F3410200>

>  <Group>  (300) 
G2

$$$$

     RDKit          2D

 31 34  0  0  0  0  0  0  0  0999 V2000
    1.3299    5.6152    0.0000 C   0  0  0  0  0  0  0  0  0  0  0  0
   -0.0967    5.1517    0.0000 O   0  0  0  0  0  0  0  0  0  0  0  0
   -0.4086    3.6844    0.0000 C   0  0  0  0  0  0  0  0  0  0  0  0
    0.7062    2.6807    0.0000 C   0  0  0  0  0  0  0  0  0  0  0  0
    0.3943    1.2135    0.0000 C   0  0  0  0  0  0  0  0  0  0  0  0
    1.2760    0.0000    0.0000 N   0  0  0  0  0  0  0  0  0  0  0  0
    0.3943   -1.2135    0.0000 C   0  0  0  0  0  0  0  0  0  0  0  0
   -1.0323   -0.7500    0.0000 N   0  0  0  0  0  0  0  0  0  0  0  0
   -2.2458   -1.6317    0.0000 C   0  0  0  0  0  0  0  0  0  0  0  0
   -2.2458   -3.1317    0.0000 C   0  0  0  0  0  0  0  0  0  0  0  0
   -3.6724   -3.5952    0.0000 C   0  0  0  0  0  0  0  0  0  0  0  0
   -4.1359   -5.0218    0.0000 O   0  0  0  0  0  0  0  0  0  0  0  0
   -3.1322   -6.1365    0.0000 C   0  0  0  0  0  0  0  0  0  0  0  0
   -3.5958   -7.5631    0.0000 C   0  0  0  0  0  0  0  0  0  0  0  0
   -1.6650   -5.8246    0.0000 C   0  0  0  0  0  0  0  0  0  0  0  0
   -1.2015   -4.3981    0.0000 C   0  0  0  0  0  0  0  0  0  0  0  0
    0.2657   -4.0862    0.0000 C   0  0  0  0  0  0  0  0  0  0  0  0
    1.2694   -5.2009    0.0000 C   0  0  0  0  0  0  0  0  0  0  0  0
    0.8059   -6.6275    0.0000 C   0  0  0  0  0  0  0  0  0  0  0  0
   -0.6613   -6.9394    0.0000 C   0  0  0  0  0  0  0  0  0  0  0  0
   -1.1248   -8.3659    0.0000 Cl  0  0  0  0  0  0  0  0  0  0  0  0
   -4.5541   -2.3817    0.0000 C   0  0  0  0  0  0  0  0  0  0  0  0
   -6.0541   -2.3817    0.0000 C   0  0  0  0  0  0  0  0  0  0  0  0
   -6.8041   -1.0826    0.0000 N   0  0  0  0  0  0  0  0  0  0  0  0
   -6.8041   -3.6807    0.0000 O   0  0  0  0  0  0  0  0  0  0  0  0
   -3.6724   -1.1682    0.0000 S   0  0  0  0  0  0  0  0  0  0  0  0
   -1.0323    0.7500    0.0000 C   0  0  0  0  0  0  0  0  0  0  0  0
   -2.1470    1.7537    0.0000 C   0  0  0  0  0  0  0  0  0  0  0  0
   -1.8351    3.2209    0.0000 C   0  0  0  0  0  0  0  0  0  0  0  0
   -2.9499    4.2246    0.0000 O   0  0  0  0  0  0  0  0  0  0  0  0
   -4.3764    3.7611    0.0000 C   0  0  0  0  0  0  0  0  0  0  0  0
  1  2  1  0
  2  3  1  0
  3  4  2  0
  4  5  1  0
  5  6  1  0
  6  7  2  0
  7  8  1  0
  8  9  1  0
  9 10  2  0
 10 11  1  0
 11 12  1  0
 12 13  1  0
 13 14  1  1
 13 15  1  0
 15 16  2  0
 16 17  1  0
 17 18  2  0
 18 19  1  0
 19 20  2  0
 20 21  1  0
 11 22  2  0
 22 23  1  0
 23 24  1  0
 23 25  2  0
 22 26  1  0
  8 27  1  0
 27 28  1  0
 28 29  2  0
 29 30  1  0
 30 31  1  0
 29  3  1  0
 27  5  2  0
 26  9  1  0
 20 15  1  0
M  END
>  <Compound_ID>  (301) 
CHEMBL222419

>  <Molecule Name>  (301) 
GSK-237701A

>  <Molecular Weight>  (301) 
457.94

>  <AlogP>  (301) 
5.00

>  <Smiles>  (301) 
COc1cc2ncn(-c3cc(O[C@H](C)c4ccccc4Cl)c(C(N)=O)s3)c2cc1OC

>  <Standard Type>  (301) 
Inhibition

>  <Standard Relation>  (301) 
'='

>  <Standard Units>  (301) 
%

>  <Standard Value>  (301) 
1.76

>  <Assay ChEMBL ID>  (301) 
CHEMBL1962174

>  <Assay Description>  (301) 
GSK_PKIS: SYK mean inhibition at 0.1 uM [Nanosyn]

>  <BAO Format ID>  (301) 
BAO_0000357

>  <BAO Label>  (301) 
single protein format

>  <Assay Organism>  (301) 
None

>  <Target ChEMBL ID>  (301) 
CHEMBL2599

>  <Target Name>  (301) 
Tyrosine-protein kinase SYK

>  <Target Organism>  (301) 
Homo sapiens

>  <Target Type>  (301) 
SINGLE PROTEIN

>  <Document ChEMBL ID>  (301) 
CHEMBL1961873

>  <Source Description>  (301) 
GSK Published Kinase Inhibitor Set

>  <Document Journal>  (301) 
nan

>  <Document Year>  (301) 
nan

>  <Active>  (301) 
0.0

>  <bits>  (301) 
<rdkit.DataStructs.cDataStructs.ExplicitBitVect object at 0x00000193F3411700>

>  <Group>  (301) 
G2

$$$$

     RDKit          2D

 36 40  0  0  0  0  0  0  0  0999 V2000
   -3.7548   -2.1855    0.0000 C   0  0  0  0  0  0  0  0  0  0  0  0
   -2.6401   -3.1891    0.0000 C   0  0  0  0  0  0  0  0  0  0  0  0
   -1.2135   -2.7256    0.0000 N   0  0  0  0  0  0  0  0  0  0  0  0
   -0.0000   -3.6073    0.0000 C   0  0  0  0  0  0  0  0  0  0  0  0
   -0.0000   -5.1073    0.0000 C   0  0  0  0  0  0  0  0  0  0  0  0
    1.2135   -5.9890    0.0000 N   0  0  0  0  0  0  0  0  0  0  0  0
    0.7500   -7.4156    0.0000 O   0  0  0  0  0  0  0  0  0  0  0  0
   -0.7500   -7.4156    0.0000 N   0  0  0  0  0  0  0  0  0  0  0  0
   -1.2135   -5.9890    0.0000 C   0  0  0  0  0  0  0  0  0  0  0  0
   -2.6401   -5.5255    0.0000 N   0  0  0  0  0  0  0  0  0  0  0  0
    1.2135   -2.7256    0.0000 N   0  0  0  0  0  0  0  0  0  0  0  0
    0.7500   -1.2990    0.0000 C   0  0  0  0  0  0  0  0  0  0  0  0
    1.5000    0.0000    0.0000 C   0  0  0  0  0  0  0  0  0  0  0  0
    0.7500    1.2990    0.0000 N   0  0  0  0  0  0  0  0  0  0  0  0
   -0.7500    1.2990    0.0000 C   0  0  0  0  0  0  0  0  0  0  0  0
   -1.5000    2.5981    0.0000 O   0  0  0  0  0  0  0  0  0  0  0  0
   -0.7500    3.8971    0.0000 C   0  0  0  0  0  0  0  0  0  0  0  0
    0.7500    3.8971    0.0000 C   0  0  0  0  0  0  0  0  0  0  0  0
    1.5000    5.1962    0.0000 C   0  0  0  0  0  0  0  0  0  0  0  0
    0.7500    6.4952    0.0000 C   0  0  0  0  0  0  0  0  0  0  0  0
   -0.7500    6.4952    0.0000 C   0  0  0  0  0  0  0  0  0  0  0  0
   -1.5000    7.7942    0.0000 N   0  0  0  0  0  0  0  0  0  0  0  0
   -0.7500    9.0933    0.0000 C   0  0  0  0  0  0  0  0  0  0  0  0
    0.7500    9.0933    0.0000 O   0  0  0  0  0  0  0  0  0  0  0  0
   -1.5000   10.3923    0.0000 C   0  0  0  0  0  0  0  0  0  0  0  0
   -0.7500   11.6913    0.0000 C   0  0  0  0  0  0  0  0  0  0  0  0
   -1.5000   12.9904    0.0000 C   0  0  0  0  0  0  0  0  0  0  0  0
   -3.0000   12.9904    0.0000 C   0  0  0  0  0  0  0  0  0  0  0  0
   -3.7500   14.2894    0.0000 N   0  0  0  0  0  0  0  0  0  0  0  0
   -3.0000   15.5885    0.0000 C   0  0  0  0  0  0  0  0  0  0  0  0
   -5.2500   14.2894    0.0000 C   0  0  0  0  0  0  0  0  0  0  0  0
   -3.7500   11.6913    0.0000 C   0  0  0  0  0  0  0  0  0  0  0  0
   -3.0000   10.3923    0.0000 C   0  0  0  0  0  0  0  0  0  0  0  0
   -1.5000    5.1962    0.0000 C   0  0  0  0  0  0  0  0  0  0  0  0
   -1.5000    0.0000    0.0000 C   0  0  0  0  0  0  0  0  0  0  0  0
   -0.7500   -1.2990    0.0000 C   0  0  0  0  0  0  0  0  0  0  0  0
  1  2  1  0
  2  3  1  0
  3  4  1  0
  4  5  1  0
  5  6  2  0
  6  7  1  0
  7  8  1  0
  8  9  2  0
  9 10  1  0
  4 11  2  0
 11 12  1  0
 12 13  2  0
 13 14  1  0
 14 15  2  0
 15 16  1  0
 16 17  1  0
 17 18  2  0
 18 19  1  0
 19 20  2  0
 20 21  1  0
 21 22  1  0
 22 23  1  0
 23 24  2  0
 23 25  1  0
 25 26  2  0
 26 27  1  0
 27 28  2  0
 28 29  1  0
 29 30  1  0
 29 31  1  0
 28 32  1  0
 32 33  2  0
 21 34  2  0
 15 35  1  0
 35 36  2  0
 36  3  1  0
  9  5  1  0
 36 12  1  0
 34 17  1  0
 33 25  1  0
M  END
>  <Compound_ID>  (302) 
CHEMBL220465

>  <Molecule Name>  (302) 
GSK-248233A

>  <Molecular Weight>  (302) 
484.52

>  <AlogP>  (302) 
4.19

>  <Smiles>  (302) 
CCn1c(-c2nonc2N)nc2cnc(Oc3cccc(NC(=O)c4ccc(N(C)C)cc4)c3)cc21

>  <Standard Type>  (302) 
Inhibition

>  <Standard Relation>  (302) 
'='

>  <Standard Units>  (302) 
%

>  <Standard Value>  (302) 
0.64

>  <Assay ChEMBL ID>  (302) 
CHEMBL1962175

>  <Assay Description>  (302) 
GSK_PKIS: SYK mean inhibition at 1 uM [Nanosyn]

>  <BAO Format ID>  (302) 
BAO_0000357

>  <BAO Label>  (302) 
single protein format

>  <Assay Organism>  (302) 
None

>  <Target ChEMBL ID>  (302) 
CHEMBL2599

>  <Target Name>  (302) 
Tyrosine-protein kinase SYK

>  <Target Organism>  (302) 
Homo sapiens

>  <Target Type>  (302) 
SINGLE PROTEIN

>  <Document ChEMBL ID>  (302) 
CHEMBL1961873

>  <Source Description>  (302) 
GSK Published Kinase Inhibitor Set

>  <Document Journal>  (302) 
nan

>  <Document Year>  (302) 
nan

>  <Active>  (302) 
0.0

>  <bits>  (302) 
<rdkit.DataStructs.cDataStructs.ExplicitBitVect object at 0x00000193F34130D0>

>  <Group>  (302) 
G2

$$$$

     RDKit          2D

 35 39  0  0  0  0  0  0  0  0999 V2000
   -3.7500  -11.6913    0.0000 C   0  0  0  0  0  0  0  0  0  0  0  0
   -3.0000  -10.3923    0.0000 N   0  0  0  0  0  0  0  0  0  0  0  0
   -3.7500   -9.0933    0.0000 C   0  0  0  0  0  0  0  0  0  0  0  0
   -3.0000   -7.7942    0.0000 C   0  0  0  0  0  0  0  0  0  0  0  0
   -1.5000   -7.7942    0.0000 N   0  0  0  0  0  0  0  0  0  0  0  0
   -0.7500   -6.4952    0.0000 C   0  0  0  0  0  0  0  0  0  0  0  0
    0.7500   -6.4952    0.0000 C   0  0  0  0  0  0  0  0  0  0  0  0
    1.5000   -5.1962    0.0000 C   0  0  0  0  0  0  0  0  0  0  0  0
    0.7500   -3.8971    0.0000 C   0  0  0  0  0  0  0  0  0  0  0  0
    1.5000   -2.5981    0.0000 N   0  0  0  0  0  0  0  0  0  0  0  0
    0.7500   -1.2990    0.0000 C   0  0  0  0  0  0  0  0  0  0  0  0
    1.5000    0.0000    0.0000 N   0  0  0  0  0  0  0  0  0  0  0  0
    0.7500    1.2990    0.0000 C   0  0  0  0  0  0  0  0  0  0  0  0
   -0.7500    1.2990    0.0000 C   0  0  0  0  0  0  0  0  0  0  0  0
   -1.5000    2.5981    0.0000 C   0  0  0  0  0  0  0  0  0  0  0  0
   -3.0000    2.5981    0.0000 C   0  0  0  0  0  0  0  0  0  0  0  0
   -3.7500    3.8971    0.0000 O   0  0  0  0  0  0  0  0  0  0  0  0
   -3.0000    5.1962    0.0000 C   0  0  0  0  0  0  0  0  0  0  0  0
   -1.5000    5.1962    0.0000 C   0  0  0  0  0  0  0  0  0  0  0  0
   -0.7500    3.8971    0.0000 Cl  0  0  0  0  0  0  0  0  0  0  0  0
   -0.7500    6.4952    0.0000 C   0  0  0  0  0  0  0  0  0  0  0  0
   -1.5000    7.7942    0.0000 C   0  0  0  0  0  0  0  0  0  0  0  0
   -3.0000    7.7942    0.0000 C   0  0  0  0  0  0  0  0  0  0  0  0
   -3.7500    6.4952    0.0000 C   0  0  0  0  0  0  0  0  0  0  0  0
   -5.2500    6.4952    0.0000 Cl  0  0  0  0  0  0  0  0  0  0  0  0
   -3.7500    1.2990    0.0000 C   0  0  0  0  0  0  0  0  0  0  0  0
   -5.2500    1.2990    0.0000 O   0  0  0  0  0  0  0  0  0  0  0  0
   -3.0000    0.0000    0.0000 N   0  0  0  0  0  0  0  0  0  0  0  0
   -3.7500   -1.2990    0.0000 C   0  0  0  0  0  0  0  0  0  0  0  0
   -1.5000    0.0000    0.0000 C   0  0  0  0  0  0  0  0  0  0  0  0
   -0.7500   -1.2990    0.0000 N   0  0  0  0  0  0  0  0  0  0  0  0
   -0.7500   -3.8971    0.0000 C   0  0  0  0  0  0  0  0  0  0  0  0
   -1.5000   -5.1962    0.0000 C   0  0  0  0  0  0  0  0  0  0  0  0
   -0.7500   -9.0933    0.0000 C   0  0  0  0  0  0  0  0  0  0  0  0
   -1.5000  -10.3923    0.0000 C   0  0  0  0  0  0  0  0  0  0  0  0
  1  2  1  0
  2  3  1  0
  3  4  1  0
  4  5  1  0
  5  6  1  0
  6  7  2  0
  7  8  1  0
  8  9  2  0
  9 10  1  0
 10 11  1  0
 11 12  2  0
 12 13  1  0
 13 14  2  0
 14 15  1  0
 15 16  2  0
 16 17  1  0
 17 18  1  0
 18 19  2  0
 19 20  1  0
 19 21  1  0
 21 22  2  0
 22 23  1  0
 23 24  2  0
 24 25  1  0
 16 26  1  0
 26 27  2  0
 26 28  1  0
 28 29  1  0
 28 30  1  0
 30 31  2  0
  9 32  1  0
 32 33  2  0
  5 34  1  0
 34 35  1  0
 35  2  1  0
 33  6  1  0
 31 11  1  0
 30 14  1  0
 24 18  1  0
M  END
>  <Compound_ID>  (303) 
CHEMBL3747023

>  <Molecule Name>  (303) 
nan

>  <Molecular Weight>  (303) 
511.41

>  <AlogP>  (303) 
4.92

>  <Smiles>  (303) 
CN1CCN(c2ccc(Nc3ncc4cc(Oc5c(Cl)cccc5Cl)c(=O)n(C)c4n3)cc2)CC1

>  <Standard Type>  (303) 
Inhibition

>  <Standard Relation>  (303) 
'='

>  <Standard Units>  (303) 
%

>  <Standard Value>  (303) 
0.0

>  <Assay ChEMBL ID>  (303) 
CHEMBL3750776

>  <Assay Description>  (303) 
Inhibition of SYK (unknown origin) at 10 uM

>  <BAO Format ID>  (303) 
BAO_0000357

>  <BAO Label>  (303) 
single protein format

>  <Assay Organism>  (303) 
Homo sapiens

>  <Target ChEMBL ID>  (303) 
CHEMBL2599

>  <Target Name>  (303) 
Tyrosine-protein kinase SYK

>  <Target Organism>  (303) 
Homo sapiens

>  <Target Type>  (303) 
SINGLE PROTEIN

>  <Document ChEMBL ID>  (303) 
CHEMBL3745672

>  <Source Description>  (303) 
Scientific Literature

>  <Document Journal>  (303) 
Bioorg Med Chem Lett

>  <Document Year>  (303) 
2016.0

>  <Active>  (303) 
0.0

>  <bits>  (303) 
<rdkit.DataStructs.cDataStructs.ExplicitBitVect object at 0x00000193F34119A0>

>  <Group>  (303) 
G2

$$$$

     RDKit          2D

 36 40  0  0  0  0  0  0  0  0999 V2000
   -2.0143    8.6263    0.0000 C   0  0  0  0  0  0  0  0  0  0  0  0
   -3.4408    8.1628    0.0000 C   0  0  0  0  0  0  0  0  0  0  0  0
   -3.7527    6.6955    0.0000 C   0  0  0  0  0  0  0  0  0  0  0  0
   -2.6380    5.6918    0.0000 C   0  0  0  0  0  0  0  0  0  0  0  0
   -1.2114    6.1554    0.0000 O   0  0  0  0  0  0  0  0  0  0  0  0
   -2.9499    4.2246    0.0000 N   0  0  0  0  0  0  0  0  0  0  0  0
   -1.8351    3.2209    0.0000 C   0  0  0  0  0  0  0  0  0  0  0  0
   -0.4086    3.6844    0.0000 C   0  0  0  0  0  0  0  0  0  0  0  0
    0.7062    2.6807    0.0000 C   0  0  0  0  0  0  0  0  0  0  0  0
    0.3943    1.2135    0.0000 C   0  0  0  0  0  0  0  0  0  0  0  0
    1.2760    0.0000    0.0000 N   0  0  0  0  0  0  0  0  0  0  0  0
    0.3943   -1.2135    0.0000 N   0  0  0  0  0  0  0  0  0  0  0  0
   -1.0323   -0.7500    0.0000 C   0  0  0  0  0  0  0  0  0  0  0  0
   -1.0323    0.7500    0.0000 C   0  0  0  0  0  0  0  0  0  0  0  0
   -2.1470    1.7537    0.0000 C   0  0  0  0  0  0  0  0  0  0  0  0
   -5.1793    6.2320    0.0000 C   0  0  0  0  0  0  0  0  0  0  0  0
   -5.4912    4.7648    0.0000 C   0  0  0  0  0  0  0  0  0  0  0  0
   -6.9177    4.3013    0.0000 C   0  0  0  0  0  0  0  0  0  0  0  0
   -7.2296    2.8340    0.0000 C   0  0  0  0  0  0  0  0  0  0  0  0
   -6.1149    1.8303    0.0000 C   0  0  0  0  0  0  0  0  0  0  0  0
   -6.4268    0.3631    0.0000 F   0  0  0  0  0  0  0  0  0  0  0  0
   -4.6883    2.2939    0.0000 C   0  0  0  0  0  0  0  0  0  0  0  0
   -4.3764    3.7611    0.0000 C   0  0  0  0  0  0  0  0  0  0  0  0
   -6.2940    7.2357    0.0000 N   0  0  0  0  0  0  0  0  0  0  0  0
   -5.9821    8.7029    0.0000 C   0  0  0  0  0  0  0  0  0  0  0  0
   -7.0969    9.7066    0.0000 C   0  0  0  0  0  0  0  0  0  0  0  0
   -6.7850   11.1738    0.0000 C   0  0  0  0  0  0  0  0  0  0  0  0
   -7.8997   12.1775    0.0000 C   0  0  0  0  0  0  0  0  0  0  0  0
   -9.3263   11.7140    0.0000 C   0  0  0  0  0  0  0  0  0  0  0  0
  -10.4410   12.7177    0.0000 C   0  0  0  0  0  0  0  0  0  0  0  0
  -11.5557   13.7214    0.0000 F   0  0  0  0  0  0  0  0  0  0  0  0
   -9.4373   13.8324    0.0000 F   0  0  0  0  0  0  0  0  0  0  0  0
  -11.4447   11.6030    0.0000 F   0  0  0  0  0  0  0  0  0  0  0  0
   -9.6382   10.2468    0.0000 N   0  0  0  0  0  0  0  0  0  0  0  0
   -8.5234    9.2431    0.0000 C   0  0  0  0  0  0  0  0  0  0  0  0
   -4.5556    9.1664    0.0000 N   0  0  0  0  0  0  0  0  0  0  0  0
  1  2  1  0
  2  3  2  0
  3  4  1  0
  4  5  2  0
  4  6  1  0
  6  7  1  0
  7  8  2  0
  8  9  1  0
  9 10  2  0
 10 11  1  0
 11 12  1  0
 12 13  2  0
 13 14  1  0
 14 15  2  0
  3 16  1  0
 16 17  1  0
 17 18  2  0
 18 19  1  0
 19 20  2  0
 20 21  1  0
 20 22  1  0
 22 23  2  0
 16 24  1  0
 24 25  2  0
 25 26  1  0
 26 27  2  0
 27 28  1  0
 28 29  2  0
 29 30  1  0
 30 31  1  0
 30 32  1  0
 30 33  1  0
 29 34  1  0
 34 35  2  0
 25 36  1  0
 36  2  1  0
 15  7  1  0
 23 17  1  0
 35 26  1  0
 14 10  1  0
M  END
>  <Compound_ID>  (304) 
CHEMBL485598

>  <Molecule Name>  (304) 
GSK-317354A

>  <Molecular Weight>  (304) 
494.45

>  <AlogP>  (304) 
5.12

>  <Smiles>  (304) 
CC1=C(C(=O)Nc2ccc3[nH]ncc3c2)C(c2ccc(F)cc2)N=C(c2ccc(C(F)(F)F)nc2)N1

>  <Standard Type>  (304) 
Inhibition

>  <Standard Relation>  (304) 
'='

>  <Standard Units>  (304) 
%

>  <Standard Value>  (304) 
0.81

>  <Assay ChEMBL ID>  (304) 
CHEMBL1962175

>  <Assay Description>  (304) 
GSK_PKIS: SYK mean inhibition at 1 uM [Nanosyn]

>  <BAO Format ID>  (304) 
BAO_0000357

>  <BAO Label>  (304) 
single protein format

>  <Assay Organism>  (304) 
None

>  <Target ChEMBL ID>  (304) 
CHEMBL2599

>  <Target Name>  (304) 
Tyrosine-protein kinase SYK

>  <Target Organism>  (304) 
Homo sapiens

>  <Target Type>  (304) 
SINGLE PROTEIN

>  <Document ChEMBL ID>  (304) 
CHEMBL1961873

>  <Source Description>  (304) 
GSK Published Kinase Inhibitor Set

>  <Document Journal>  (304) 
nan

>  <Document Year>  (304) 
nan

>  <Active>  (304) 
0.0

>  <bits>  (304) 
<rdkit.DataStructs.cDataStructs.ExplicitBitVect object at 0x00000193F34120A0>

>  <Group>  (304) 
G2

$$$$

     RDKit          2D

 32 35  0  0  0  0  0  0  0  0999 V2000
    9.0985   -9.6461    0.0000 C   0  0  0  0  0  0  0  0  0  0  0  0
    7.7282   -9.0360    0.0000 S   0  0  0  0  0  0  0  0  0  0  0  0
    8.3383   -7.6657    0.0000 O   0  0  0  0  0  0  0  0  0  0  0  0
    7.1181  -10.4063    0.0000 O   0  0  0  0  0  0  0  0  0  0  0  0
    6.3579   -8.4259    0.0000 C   0  0  0  0  0  0  0  0  0  0  0  0
    6.2011   -6.9341    0.0000 C   0  0  0  0  0  0  0  0  0  0  0  0
    4.8308   -6.3240    0.0000 N   0  0  0  0  0  0  0  0  0  0  0  0
    4.6740   -4.8322    0.0000 C   0  0  0  0  0  0  0  0  0  0  0  0
    3.3037   -4.2221    0.0000 C   0  0  0  0  0  0  0  0  0  0  0  0
    2.9918   -2.7549    0.0000 N   0  0  0  0  0  0  0  0  0  0  0  0
    1.5000   -2.5981    0.0000 C   0  0  0  0  0  0  0  0  0  0  0  0
    0.7500   -1.2990    0.0000 C   0  0  0  0  0  0  0  0  0  0  0  0
    1.5000    0.0000    0.0000 C   0  0  0  0  0  0  0  0  0  0  0  0
    0.7500    1.2990    0.0000 C   0  0  0  0  0  0  0  0  0  0  0  0
   -0.7500    1.2990    0.0000 C   0  0  0  0  0  0  0  0  0  0  0  0
   -1.5000    2.5981    0.0000 N   0  0  0  0  0  0  0  0  0  0  0  0
   -3.0000    2.5981    0.0000 C   0  0  0  0  0  0  0  0  0  0  0  0
   -3.7500    1.2990    0.0000 N   0  0  0  0  0  0  0  0  0  0  0  0
   -3.0000    0.0000    0.0000 C   0  0  0  0  0  0  0  0  0  0  0  0
   -3.7500   -1.2990    0.0000 N   0  0  0  0  0  0  0  0  0  0  0  0
   -5.2500   -1.2990    0.0000 C   0  0  0  0  0  0  0  0  0  0  0  0
   -6.0000    0.0000    0.0000 C   0  0  0  0  0  0  0  0  0  0  0  0
   -7.5000    0.0000    0.0000 C   0  0  0  0  0  0  0  0  0  0  0  0
   -8.2500   -1.2990    0.0000 C   0  0  0  0  0  0  0  0  0  0  0  0
   -9.7500   -1.2990    0.0000 F   0  0  0  0  0  0  0  0  0  0  0  0
   -7.5000   -2.5981    0.0000 C   0  0  0  0  0  0  0  0  0  0  0  0
   -8.2500   -3.8971    0.0000 Cl  0  0  0  0  0  0  0  0  0  0  0  0
   -6.0000   -2.5981    0.0000 C   0  0  0  0  0  0  0  0  0  0  0  0
   -1.5000    0.0000    0.0000 C   0  0  0  0  0  0  0  0  0  0  0  0
   -0.7500   -1.2990    0.0000 C   0  0  0  0  0  0  0  0  0  0  0  0
    0.8899   -3.9684    0.0000 C   0  0  0  0  0  0  0  0  0  0  0  0
    2.0046   -4.9721    0.0000 S   0  0  0  0  0  0  0  0  0  0  0  0
  1  2  1  0
  2  3  2  0
  2  4  2  0
  2  5  1  0
  5  6  1  0
  6  7  1  0
  7  8  1  0
  8  9  1  0
  9 10  2  0
 10 11  1  0
 11 12  1  0
 12 13  2  0
 13 14  1  0
 14 15  2  0
 15 16  1  0
 16 17  2  0
 17 18  1  0
 18 19  2  0
 19 20  1  0
 20 21  1  0
 21 22  2  0
 22 23  1  0
 23 24  2  0
 24 25  1  0
 24 26  1  0
 26 27  1  0
 26 28  2  0
 19 29  1  0
 29 30  2  0
 11 31  2  0
 31 32  1  0
 32  9  1  0
 30 12  1  0
 29 15  1  0
 28 21  1  0
M  END
>  <Compound_ID>  (305) 
CHEMBL1909355

>  <Molecule Name>  (305) 
GW461104A

>  <Molecular Weight>  (305) 
528.46

>  <AlogP>  (305) 
4.42

>  <Smiles>  (305) 
CS(=O)(=O)CCNCc1nc(-c2ccc3ncnc(Nc4ccc(F)c(Cl)c4)c3c2)cs1

>  <Standard Type>  (305) 
Inhibition

>  <Standard Relation>  (305) 
'='

>  <Standard Units>  (305) 
%

>  <Standard Value>  (305) 
-0.34

>  <Assay ChEMBL ID>  (305) 
CHEMBL1962175

>  <Assay Description>  (305) 
GSK_PKIS: SYK mean inhibition at 1 uM [Nanosyn]

>  <BAO Format ID>  (305) 
BAO_0000357

>  <BAO Label>  (305) 
single protein format

>  <Assay Organism>  (305) 
None

>  <Target ChEMBL ID>  (305) 
CHEMBL2599

>  <Target Name>  (305) 
Tyrosine-protein kinase SYK

>  <Target Organism>  (305) 
Homo sapiens

>  <Target Type>  (305) 
SINGLE PROTEIN

>  <Document ChEMBL ID>  (305) 
CHEMBL1961873

>  <Source Description>  (305) 
GSK Published Kinase Inhibitor Set

>  <Document Journal>  (305) 
nan

>  <Document Year>  (305) 
nan

>  <Active>  (305) 
0.0

>  <bits>  (305) 
<rdkit.DataStructs.cDataStructs.ExplicitBitVect object at 0x00000193F3413840>

>  <Group>  (305) 
G2

$$$$

     RDKit          2D

 25 26  0  0  0  0  0  0  0  0999 V2000
    6.0000   -2.5981    0.0000 C   0  0  0  0  0  0  0  0  0  0  0  0
    5.2500   -1.2990    0.0000 N   0  0  0  0  0  0  0  0  0  0  0  0
    3.7500   -1.2990    0.0000 C   0  0  0  0  0  0  0  0  0  0  0  0
    3.0000   -2.5981    0.0000 O   0  0  0  0  0  0  0  0  0  0  0  0
    3.0000    0.0000    0.0000 O   0  0  0  0  0  0  0  0  0  0  0  0
    1.5000    0.0000    0.0000 C   0  0  0  0  0  0  0  0  0  0  0  0
    0.7500   -1.2990    0.0000 C   0  0  0  0  0  0  0  0  0  0  0  0
   -0.7500   -1.2990    0.0000 C   0  0  0  0  0  0  0  0  0  0  0  0
   -1.5000   -2.5981    0.0000 C   0  0  0  0  0  0  0  0  0  0  0  0
   -1.5000    0.0000    0.0000 C   0  0  0  0  0  0  0  0  0  0  0  0
   -3.0000    0.0000    0.0000 C   0  0  0  0  0  0  0  0  0  0  0  0
   -3.7500    1.2990    0.0000 C   0  0  0  0  0  0  0  0  0  0  0  0
   -5.2500    1.2990    0.0000 C   0  0  0  0  0  0  0  0  0  0  0  0
   -6.0000    2.5981    0.0000 C   0  0  0  0  0  0  0  0  0  0  0  0
   -7.5000    2.5981    0.0000 N   0  0  0  0  0  0  0  0  0  0  0  0
   -8.2500    1.2990    0.0000 C   0  0  0  0  0  0  0  0  0  0  0  0
   -7.5000    0.0000    0.0000 C   0  0  0  0  0  0  0  0  0  0  0  0
   -8.2500   -1.2990    0.0000 C   0  0  0  0  0  0  0  0  0  0  0  0
   -7.5000   -2.5981    0.0000 O   0  0  0  0  0  0  0  0  0  0  0  0
   -9.7500   -1.2990    0.0000 N   0  0  0  0  0  0  0  0  0  0  0  0
  -10.5000   -2.5981    0.0000 C   0  0  0  0  0  0  0  0  0  0  0  0
   -6.0000    0.0000    0.0000 C   0  0  0  0  0  0  0  0  0  0  0  0
   -0.7500    1.2990    0.0000 C   0  0  0  0  0  0  0  0  0  0  0  0
   -1.5000    2.5981    0.0000 C   0  0  0  0  0  0  0  0  0  0  0  0
    0.7500    1.2990    0.0000 C   0  0  0  0  0  0  0  0  0  0  0  0
  1  2  1  0
  2  3  1  0
  3  4  2  0
  3  5  1  0
  5  6  1  0
  6  7  2  0
  7  8  1  0
  8  9  1  0
  8 10  2  0
 10 11  1  0
 11 12  2  0
 12 13  1  0
 13 14  2  0
 14 15  1  0
 15 16  2  0
 16 17  1  0
 17 18  1  0
 18 19  2  0
 18 20  1  0
 20 21  1  0
 17 22  2  0
 10 23  1  0
 23 24  1  0
 23 25  2  0
 25  6  1  0
 22 13  1  0
M  END
>  <Compound_ID>  (306) 
CHEMBL218932

>  <Molecule Name>  (306) 
GW432441X

>  <Molecular Weight>  (306) 
339.4

>  <AlogP>  (306) 
2.95

>  <Smiles>  (306) 
CNC(=O)Oc1cc(C)c(/C=C/c2cncc(C(=O)NC)c2)c(C)c1

>  <Standard Type>  (306) 
Inhibition

>  <Standard Relation>  (306) 
'='

>  <Standard Units>  (306) 
%

>  <Standard Value>  (306) 
-0.86

>  <Assay ChEMBL ID>  (306) 
CHEMBL1962175

>  <Assay Description>  (306) 
GSK_PKIS: SYK mean inhibition at 1 uM [Nanosyn]

>  <BAO Format ID>  (306) 
BAO_0000357

>  <BAO Label>  (306) 
single protein format

>  <Assay Organism>  (306) 
None

>  <Target ChEMBL ID>  (306) 
CHEMBL2599

>  <Target Name>  (306) 
Tyrosine-protein kinase SYK

>  <Target Organism>  (306) 
Homo sapiens

>  <Target Type>  (306) 
SINGLE PROTEIN

>  <Document ChEMBL ID>  (306) 
CHEMBL1961873

>  <Source Description>  (306) 
GSK Published Kinase Inhibitor Set

>  <Document Journal>  (306) 
nan

>  <Document Year>  (306) 
nan

>  <Active>  (306) 
0.0

>  <bits>  (306) 
<rdkit.DataStructs.cDataStructs.ExplicitBitVect object at 0x00000193F3413060>

>  <Group>  (306) 
G2

$$$$

     RDKit          2D

 44 49  0  0  0  0  0  0  0  0999 V2000
   -4.9294   -3.0000    0.0000 C   0  0  0  0  0  0  0  0  0  0  0  0
   -4.9294   -1.5000    0.0000 O   0  0  0  0  0  0  0  0  0  0  0  0
   -3.6304   -0.7500    0.0000 C   0  0  0  0  0  0  0  0  0  0  0  0
   -2.3313   -1.5000    0.0000 C   0  0  0  0  0  0  0  0  0  0  0  0
   -1.0323   -0.7500    0.0000 C   0  0  0  0  0  0  0  0  0  0  0  0
   -1.0323    0.7500    0.0000 C   0  0  0  0  0  0  0  0  0  0  0  0
   -2.3313    1.5000    0.0000 C   0  0  0  0  0  0  0  0  0  0  0  0
   -3.6304    0.7500    0.0000 C   0  0  0  0  0  0  0  0  0  0  0  0
   -4.9294    1.5000    0.0000 N   0  0  0  0  0  0  0  0  0  0  0  0
   -6.2284    0.7500    0.0000 C   0  0  0  0  0  0  0  0  0  0  0  0
   -6.2284   -0.7500    0.0000 N   0  0  0  0  0  0  0  0  0  0  0  0
   -7.5275   -1.5000    0.0000 C   0  0  0  0  0  0  0  0  0  0  0  0
   -7.5275   -3.0000    0.0000 N   0  0  0  0  0  0  0  0  0  0  0  0
   -8.8265   -3.7500    0.0000 C   0  0  0  0  0  0  0  0  0  0  0  0
  -10.1256   -3.0000    0.0000 C   0  0  0  0  0  0  0  0  0  0  0  0
  -11.4246   -3.7500    0.0000 C   0  0  0  0  0  0  0  0  0  0  0  0
  -11.4246   -5.2500    0.0000 C   0  0  0  0  0  0  0  0  0  0  0  0
  -10.1256   -6.0000    0.0000 C   0  0  0  0  0  0  0  0  0  0  0  0
  -10.1256   -7.5000    0.0000 F   0  0  0  0  0  0  0  0  0  0  0  0
   -8.8265   -5.2500    0.0000 C   0  0  0  0  0  0  0  0  0  0  0  0
   -7.5275   -6.0000    0.0000 C   0  0  0  0  0  0  0  0  0  0  0  0
   -6.2284   -5.2500    0.0000 N   0  0  0  0  0  0  0  0  0  0  0  0
   -7.5275   -7.5000    0.0000 O   0  0  0  0  0  0  0  0  0  0  0  0
   -8.8265   -0.7500    0.0000 C   0  0  0  0  0  0  0  0  0  0  0  0
  -10.2531   -1.2135    0.0000 C   0  0  0  0  0  0  0  0  0  0  0  0
  -11.1348    0.0000    0.0000 C   0  0  0  0  0  0  0  0  0  0  0  0
  -10.2531    1.2135    0.0000 N   0  0  0  0  0  0  0  0  0  0  0  0
   -8.8265    0.7500    0.0000 C   0  0  0  0  0  0  0  0  0  0  0  0
   -7.5275    1.5000    0.0000 N   0  0  0  0  0  0  0  0  0  0  0  0
    0.3943    1.2135    0.0000 N   0  0  0  0  0  0  0  0  0  0  0  0
    0.8578    2.6401    0.0000 C   0  0  0  0  0  0  0  0  0  0  0  0
   -0.1459    3.7548    0.0000 O   0  0  0  0  0  0  0  0  0  0  0  0
    2.3250    2.9520    0.0000 C   0  0  0  0  0  0  0  0  0  0  0  0
    2.7886    4.3786    0.0000 N   0  0  0  0  0  0  0  0  0  0  0  0
    4.2558    4.6904    0.0000 C   0  0  0  0  0  0  0  0  0  0  0  0
    4.7193    6.1170    0.0000 C   0  0  0  0  0  0  0  0  0  0  0  0
    3.7156    7.2317    0.0000 N   0  0  0  0  0  0  0  0  0  0  0  0
    4.1791    8.6583    0.0000 C   0  0  0  0  0  0  0  0  0  0  0  0
    5.6464    8.9702    0.0000 C   0  0  0  0  0  0  0  0  0  0  0  0
    3.1755    9.7730    0.0000 C   0  0  0  0  0  0  0  0  0  0  0  0
    2.2484    6.9199    0.0000 C   0  0  0  0  0  0  0  0  0  0  0  0
    1.7849    5.4933    0.0000 C   0  0  0  0  0  0  0  0  0  0  0  0
    1.2760    0.0000    0.0000 C   0  0  0  0  0  0  0  0  0  0  0  0
    0.3943   -1.2135    0.0000 C   0  0  0  0  0  0  0  0  0  0  0  0
  1  2  1  0
  2  3  1  0
  3  4  2  0
  4  5  1  0
  5  6  2  0
  6  7  1  0
  7  8  2  0
  8  9  1  0
  9 10  1  0
 10 11  2  0
 11 12  1  0
 12 13  1  0
 13 14  1  0
 14 15  2  0
 15 16  1  0
 16 17  2  0
 17 18  1  0
 18 19  1  0
 18 20  2  0
 20 21  1  0
 21 22  1  0
 21 23  2  0
 12 24  2  0
 24 25  1  0
 25 26  2  0
 26 27  1  0
 27 28  1  0
 28 29  2  0
  6 30  1  0
 30 31  1  0
 31 32  2  0
 31 33  1  0
 33 34  1  0
 34 35  1  0
 35 36  1  0
 36 37  1  0
 37 38  1  0
 38 39  1  0
 38 40  1  0
 37 41  1  0
 41 42  1  0
 30 43  1  0
 43 44  1  0
  8  3  1  0
 29 10  1  0
 42 34  1  0
 44  5  1  0
 20 14  1  0
 28 24  1  0
M  END
>  <Compound_ID>  (307) 
CHEMBL505915

>  <Molecule Name>  (307) 
GSK-1751853A

>  <Molecular Weight>  (307) 
601.69

>  <AlogP>  (307) 
3.61

>  <Smiles>  (307) 
COc1cc2c(cc1Nc1nc(Nc3cccc(F)c3C(N)=O)c3cc[nH]c3n1)N(C(=O)CN1CCN(C(C)C)CC1)CC2

>  <Standard Type>  (307) 
Inhibition

>  <Standard Relation>  (307) 
'='

>  <Standard Units>  (307) 
%

>  <Standard Value>  (307) 
3.08

>  <Assay ChEMBL ID>  (307) 
CHEMBL1962175

>  <Assay Description>  (307) 
GSK_PKIS: SYK mean inhibition at 1 uM [Nanosyn]

>  <BAO Format ID>  (307) 
BAO_0000357

>  <BAO Label>  (307) 
single protein format

>  <Assay Organism>  (307) 
None

>  <Target ChEMBL ID>  (307) 
CHEMBL2599

>  <Target Name>  (307) 
Tyrosine-protein kinase SYK

>  <Target Organism>  (307) 
Homo sapiens

>  <Target Type>  (307) 
SINGLE PROTEIN

>  <Document ChEMBL ID>  (307) 
CHEMBL1961873

>  <Source Description>  (307) 
GSK Published Kinase Inhibitor Set

>  <Document Journal>  (307) 
nan

>  <Document Year>  (307) 
nan

>  <Active>  (307) 
0.0

>  <bits>  (307) 
<rdkit.DataStructs.cDataStructs.ExplicitBitVect object at 0x00000193F3412340>

>  <Group>  (307) 
G2

$$$$

     RDKit          2D

 35 39  0  0  0  0  0  0  0  0999 V2000
    3.7500   -1.2990    0.0000 C   0  0  0  0  0  0  0  0  0  0  0  0
    3.0000    0.0000    0.0000 O   0  0  0  0  0  0  0  0  0  0  0  0
    1.5000    0.0000    0.0000 C   0  0  0  0  0  0  0  0  0  0  0  0
    0.7500   -1.2990    0.0000 C   0  0  0  0  0  0  0  0  0  0  0  0
   -0.7500   -1.2990    0.0000 C   0  0  0  0  0  0  0  0  0  0  0  0
   -1.5000    0.0000    0.0000 C   0  0  0  0  0  0  0  0  0  0  0  0
   -3.0000    0.0000    0.0000 C   0  0  0  0  0  0  0  0  0  0  0  0
   -3.7500    1.2990    0.0000 C   0  0  0  0  0  0  0  0  0  0  0  0
   -5.2500    1.2990    0.0000 C   0  0  0  0  0  0  0  0  0  0  0  0
   -6.1317    0.0855    0.0000 C   0  0  0  0  0  0  0  0  0  0  0  0
   -5.6682   -1.3411    0.0000 C   0  0  0  0  0  0  0  0  0  0  0  0
   -6.6718   -2.4558    0.0000 C   0  0  0  0  0  0  0  0  0  0  0  0
   -6.2083   -3.8824    0.0000 C   0  0  0  0  0  0  0  0  0  0  0  0
   -4.7411   -4.1942    0.0000 N   0  0  0  0  0  0  0  0  0  0  0  0
   -3.7374   -3.0795    0.0000 C   0  0  0  0  0  0  0  0  0  0  0  0
   -4.2009   -1.6529    0.0000 C   0  0  0  0  0  0  0  0  0  0  0  0
   -7.5583    0.5490    0.0000 N   0  0  0  0  0  0  0  0  0  0  0  0
   -7.5583    2.0490    0.0000 C   0  0  0  0  0  0  0  0  0  0  0  0
   -8.7718    2.9307    0.0000 C   0  0  0  0  0  0  0  0  0  0  0  0
   -8.6150    4.4225    0.0000 C   0  0  0  0  0  0  0  0  0  0  0  0
   -9.8285    5.3042    0.0000 C   0  0  0  0  0  0  0  0  0  0  0  0
  -11.1988    4.6941    0.0000 C   0  0  0  0  0  0  0  0  0  0  0  0
  -12.4124    5.5757    0.0000 S   0  0  0  0  0  0  0  0  0  0  0  0
  -13.6259    6.4574    0.0000 C   0  0  0  0  0  0  0  0  0  0  0  0
  -13.2940    4.3622    0.0000 O   0  0  0  0  0  0  0  0  0  0  0  0
  -11.5307    6.7893    0.0000 O   0  0  0  0  0  0  0  0  0  0  0  0
  -11.3556    3.2023    0.0000 C   0  0  0  0  0  0  0  0  0  0  0  0
  -10.1421    2.3206    0.0000 C   0  0  0  0  0  0  0  0  0  0  0  0
  -10.2989    0.8288    0.0000 C   0  0  0  0  0  0  0  0  0  0  0  0
   -6.1317    2.5126    0.0000 N   0  0  0  0  0  0  0  0  0  0  0  0
   -5.6682    3.9391    0.0000 C   0  0  0  0  0  0  0  0  0  0  0  0
   -3.0000    2.5981    0.0000 C   0  0  0  0  0  0  0  0  0  0  0  0
   -1.5000    2.5981    0.0000 C   0  0  0  0  0  0  0  0  0  0  0  0
   -0.7500    1.2990    0.0000 C   0  0  0  0  0  0  0  0  0  0  0  0
    0.7500    1.2990    0.0000 C   0  0  0  0  0  0  0  0  0  0  0  0
  1  2  1  0
  2  3  1  0
  3  4  2  0
  4  5  1  0
  5  6  2  0
  6  7  1  0
  7  8  2  0
  8  9  1  0
  9 10  2  0
 10 11  1  0
 11 12  2  0
 12 13  1  0
 13 14  2  0
 14 15  1  0
 15 16  2  0
 10 17  1  0
 17 18  2  0
 18 19  1  0
 19 20  2  0
 20 21  1  0
 21 22  2  0
 22 23  1  0
 23 24  1  0
 23 25  2  0
 23 26  2  0
 22 27  1  0
 27 28  2  0
 28 29  1  0
 18 30  1  0
 30 31  1  0
  8 32  1  0
 32 33  2  0
 33 34  1  0
 34 35  2  0
 35  3  1  0
 34  6  1  0
 30  9  1  0
 16 11  1  0
 28 19  1  0
M  END
>  <Compound_ID>  (308) 
CHEMBL237571

>  <Molecule Name>  (308) 
nan

>  <Molecular Weight>  (308) 
483.59

>  <AlogP>  (308) 
5.69

>  <Smiles>  (308) 
COc1ccc2cc(-c3c(-c4ccncc4)nc(-c4ccc(S(C)(=O)=O)cc4C)n3C)ccc2c1

>  <Standard Type>  (308) 
Inhibition

>  <Standard Relation>  (308) 
'='

>  <Standard Units>  (308) 
%

>  <Standard Value>  (308) 
0.26

>  <Assay ChEMBL ID>  (308) 
CHEMBL1962175

>  <Assay Description>  (308) 
GSK_PKIS: SYK mean inhibition at 1 uM [Nanosyn]

>  <BAO Format ID>  (308) 
BAO_0000357

>  <BAO Label>  (308) 
single protein format

>  <Assay Organism>  (308) 
None

>  <Target ChEMBL ID>  (308) 
CHEMBL2599

>  <Target Name>  (308) 
Tyrosine-protein kinase SYK

>  <Target Organism>  (308) 
Homo sapiens

>  <Target Type>  (308) 
SINGLE PROTEIN

>  <Document ChEMBL ID>  (308) 
CHEMBL1961873

>  <Source Description>  (308) 
GSK Published Kinase Inhibitor Set

>  <Document Journal>  (308) 
nan

>  <Document Year>  (308) 
nan

>  <Active>  (308) 
0.0

>  <bits>  (308) 
<rdkit.DataStructs.cDataStructs.ExplicitBitVect object at 0x00000193F3410120>

>  <Group>  (308) 
G2

$$$$

     RDKit          2D

 28 31  0  0  0  0  0  0  0  0999 V2000
    7.5000   -7.7942    0.0000 C   0  0  0  0  0  0  0  0  0  0  0  0
    8.2500   -6.4952    0.0000 O   0  0  0  0  0  0  0  0  0  0  0  0
    7.5000   -5.1962    0.0000 C   0  0  0  0  0  0  0  0  0  0  0  0
    6.0000   -5.1962    0.0000 C   0  0  0  0  0  0  0  0  0  0  0  0
    5.2500   -3.8971    0.0000 C   0  0  0  0  0  0  0  0  0  0  0  0
    3.7500   -3.8971    0.0000 C   0  0  0  0  0  0  0  0  0  0  0  0
    3.0000   -2.5981    0.0000 N   0  0  0  0  0  0  0  0  0  0  0  0
    1.5000   -2.5981    0.0000 N   0  0  0  0  0  0  0  0  0  0  0  0
    0.7500   -1.2990    0.0000 C   0  0  0  0  0  0  0  0  0  0  0  0
    1.5000    0.0000    0.0000 N   0  0  0  0  0  0  0  0  0  0  0  0
    0.7500    1.2990    0.0000 C   0  0  0  0  0  0  0  0  0  0  0  0
   -0.7500    1.2990    0.0000 N   0  0  0  0  0  0  0  0  0  0  0  0
   -1.5000    0.0000    0.0000 C   0  0  0  0  0  0  0  0  0  0  0  0
   -0.7500   -1.2990    0.0000 C   0  0  0  0  0  0  0  0  0  0  0  0
   -1.7537   -2.4138    0.0000 C   0  0  0  0  0  0  0  0  0  0  0  0
   -3.1240   -1.8037    0.0000 N   0  0  0  0  0  0  0  0  0  0  0  0
   -2.9672   -0.3119    0.0000 N   0  0  0  0  0  0  0  0  0  0  0  0
   -4.0819    0.6918    0.0000 C   0  0  0  0  0  0  0  0  0  0  0  0
   -5.5085    0.2283    0.0000 C   0  0  0  0  0  0  0  0  0  0  0  0
   -6.6232    1.2320    0.0000 C   0  0  0  0  0  0  0  0  0  0  0  0
   -8.0498    0.7685    0.0000 C   0  0  0  0  0  0  0  0  0  0  0  0
   -8.3617   -0.6987    0.0000 C   0  0  0  0  0  0  0  0  0  0  0  0
   -7.2470   -1.7024    0.0000 C   0  0  0  0  0  0  0  0  0  0  0  0
   -5.8204   -1.2389    0.0000 C   0  0  0  0  0  0  0  0  0  0  0  0
    6.0000   -2.5981    0.0000 C   0  0  0  0  0  0  0  0  0  0  0  0
    7.5000   -2.5981    0.0000 C   0  0  0  0  0  0  0  0  0  0  0  0
    8.2500   -3.8971    0.0000 C   0  0  0  0  0  0  0  0  0  0  0  0
    9.7500   -3.8971    0.0000 O   0  0  0  0  0  0  0  0  0  0  0  0
  1  2  1  0
  2  3  1  0
  3  4  2  0
  4  5  1  0
  5  6  1  0
  6  7  2  3
  7  8  1  0
  8  9  1  0
  9 10  2  0
 10 11  1  0
 11 12  2  0
 12 13  1  0
 13 14  2  0
 14 15  1  0
 15 16  2  0
 16 17  1  0
 17 18  1  0
 18 19  1  0
 19 20  2  0
 20 21  1  0
 21 22  2  0
 22 23  1  0
 23 24  2  0
  5 25  2  0
 25 26  1  0
 26 27  2  0
 27 28  1  0
 27  3  1  0
 14  9  1  0
 24 19  1  0
 17 13  1  0
M  END
>  <Compound_ID>  (309) 
CHEMBL1789962

>  <Molecule Name>  (309) 
GW643971X

>  <Molecular Weight>  (309) 
374.4

>  <AlogP>  (309) 
3.03

>  <Smiles>  (309) 
COc1cc(C=NNc2ncnc3c2cnn3Cc2ccccc2)ccc1O

>  <Standard Type>  (309) 
Inhibition

>  <Standard Relation>  (309) 
'='

>  <Standard Units>  (309) 
%

>  <Standard Value>  (309) 
-4.26

>  <Assay ChEMBL ID>  (309) 
CHEMBL1962175

>  <Assay Description>  (309) 
GSK_PKIS: SYK mean inhibition at 1 uM [Nanosyn]

>  <BAO Format ID>  (309) 
BAO_0000357

>  <BAO Label>  (309) 
single protein format

>  <Assay Organism>  (309) 
None

>  <Target ChEMBL ID>  (309) 
CHEMBL2599

>  <Target Name>  (309) 
Tyrosine-protein kinase SYK

>  <Target Organism>  (309) 
Homo sapiens

>  <Target Type>  (309) 
SINGLE PROTEIN

>  <Document ChEMBL ID>  (309) 
CHEMBL1961873

>  <Source Description>  (309) 
GSK Published Kinase Inhibitor Set

>  <Document Journal>  (309) 
nan

>  <Document Year>  (309) 
nan

>  <Active>  (309) 
0.0

>  <bits>  (309) 
<rdkit.DataStructs.cDataStructs.ExplicitBitVect object at 0x00000193F3412180>

>  <Group>  (309) 
G2

$$$$

     RDKit          2D

 25 28  0  0  0  0  0  0  0  0999 V2000
    3.0000   -0.0000    0.0000 C   0  0  0  0  0  0  0  0  0  0  0  0
    3.7500   -1.2990    0.0000 C   0  0  0  0  0  0  0  0  0  0  0  0
    5.2500   -1.2990    0.0000 C   0  0  0  0  0  0  0  0  0  0  0  0
    6.0000   -2.5981    0.0000 C   0  0  0  0  0  0  0  0  0  0  0  0
    5.2500   -3.8971    0.0000 C   0  0  0  0  0  0  0  0  0  0  0  0
    6.0000   -5.1962    0.0000 O   0  0  0  0  0  0  0  0  0  0  0  0
    3.7500   -3.8971    0.0000 C   0  0  0  0  0  0  0  0  0  0  0  0
    3.0000   -2.5981    0.0000 C   0  0  0  0  0  0  0  0  0  0  0  0
    1.5000   -2.5981    0.0000 N   0  0  0  0  0  0  0  0  0  0  0  0
    0.7500   -1.2990    0.0000 C   0  0  0  0  0  0  0  0  0  0  0  0
    1.5000    0.0000    0.0000 C   0  0  0  0  0  0  0  0  0  0  0  0
    0.7500    1.2990    0.0000 C   0  0  0  0  0  0  0  0  0  0  0  0
   -0.7500    1.2990    0.0000 N   0  0  0  0  0  0  0  0  0  0  0  0
   -1.5000    0.0000    0.0000 C   0  0  0  0  0  0  0  0  0  0  0  0
   -3.0000    0.0000    0.0000 C   0  0  0  0  0  0  0  0  0  0  0  0
   -3.7500   -1.2990    0.0000 C   0  0  0  0  0  0  0  0  0  0  0  0
   -5.2500   -1.2990    0.0000 C   0  0  0  0  0  0  0  0  0  0  0  0
   -6.0000    0.0000    0.0000 C   0  0  0  0  0  0  0  0  0  0  0  0
   -7.5000    0.0000    0.0000 C   0  0  0  0  0  0  0  0  0  0  0  0
   -8.2500   -1.2990    0.0000 C   0  0  0  0  0  0  0  0  0  0  0  0
   -7.5000   -2.5981    0.0000 C   0  0  0  0  0  0  0  0  0  0  0  0
   -6.0000   -2.5981    0.0000 N   0  0  0  0  0  0  0  0  0  0  0  0
   -3.0000   -2.5981    0.0000 C   0  0  0  0  0  0  0  0  0  0  0  0
   -1.5000   -2.5981    0.0000 C   0  0  0  0  0  0  0  0  0  0  0  0
   -0.7500   -1.2990    0.0000 C   0  0  0  0  0  0  0  0  0  0  0  0
  1  2  1  0
  2  3  2  0
  3  4  1  0
  4  5  2  0
  5  6  1  0
  5  7  1  0
  7  8  2  0
  8  9  1  0
  9 10  1  0
 10 11  2  0
 11 12  1  0
 12 13  2  0
 13 14  1  0
 14 15  2  0
 15 16  1  0
 16 17  1  0
 17 18  2  0
 18 19  1  0
 19 20  2  0
 20 21  1  0
 21 22  2  0
 16 23  2  0
 23 24  1  0
 24 25  2  0
  8  2  1  0
 25 10  1  0
 25 14  1  0
 22 17  1  0
M  END
>  <Compound_ID>  (310) 
CHEMBL581096

>  <Molecule Name>  (310) 
GW440139A

>  <Molecular Weight>  (310) 
363.85

>  <AlogP>  (310) 
5.05

>  <Smiles>  (310) 
Cc1ccc(O)cc1Nc1ccnc2cc(-c3ccccn3)ccc12

>  <Standard Type>  (310) 
Inhibition

>  <Standard Relation>  (310) 
'='

>  <Standard Units>  (310) 
%

>  <Standard Value>  (310) 
1.9

>  <Assay ChEMBL ID>  (310) 
CHEMBL1962175

>  <Assay Description>  (310) 
GSK_PKIS: SYK mean inhibition at 1 uM [Nanosyn]

>  <BAO Format ID>  (310) 
BAO_0000357

>  <BAO Label>  (310) 
single protein format

>  <Assay Organism>  (310) 
None

>  <Target ChEMBL ID>  (310) 
CHEMBL2599

>  <Target Name>  (310) 
Tyrosine-protein kinase SYK

>  <Target Organism>  (310) 
Homo sapiens

>  <Target Type>  (310) 
SINGLE PROTEIN

>  <Document ChEMBL ID>  (310) 
CHEMBL1961873

>  <Source Description>  (310) 
GSK Published Kinase Inhibitor Set

>  <Document Journal>  (310) 
nan

>  <Document Year>  (310) 
nan

>  <Active>  (310) 
0.0

>  <bits>  (310) 
<rdkit.DataStructs.cDataStructs.ExplicitBitVect object at 0x00000193F3413370>

>  <Group>  (310) 
G2

$$$$

     RDKit          2D

 38 41  0  0  0  0  0  0  0  0999 V2000
    6.0000   -2.5981    0.0000 C   0  0  0  0  0  0  0  0  0  0  0  0
    5.2500   -1.2990    0.0000 C   0  0  0  0  0  0  0  0  0  0  0  0
    6.0000    0.0000    0.0000 O   0  0  0  0  0  0  0  0  0  0  0  0
    3.7500   -1.2990    0.0000 C   0  0  0  0  0  0  0  0  0  0  0  0
    3.0000    0.0000    0.0000 N   0  0  0  0  0  0  0  0  0  0  0  0
    1.5000    0.0000    0.0000 C   0  0  0  0  0  0  0  0  0  0  0  0
    0.7500   -1.2990    0.0000 N   0  0  0  0  0  0  0  0  0  0  0  0
   -0.7500   -1.2990    0.0000 C   0  0  0  0  0  0  0  0  0  0  0  0
   -1.5000    0.0000    0.0000 C   0  0  0  0  0  0  0  0  0  0  0  0
   -0.7500    1.2990    0.0000 C   0  0  0  0  0  0  0  0  0  0  0  0
   -1.5000    2.5981    0.0000 N   0  0  0  0  0  0  0  0  0  0  0  0
   -2.9918    2.7549    0.0000 C   0  0  0  0  0  0  0  0  0  0  0  0
   -3.3037    4.2221    0.0000 C   0  0  0  0  0  0  0  0  0  0  0  0
   -2.0046    4.9721    0.0000 N   0  0  0  0  0  0  0  0  0  0  0  0
   -0.8899    3.9684    0.0000 C   0  0  0  0  0  0  0  0  0  0  0  0
    0.5773    4.2803    0.0000 C   0  0  0  0  0  0  0  0  0  0  0  0
    1.0409    5.7068    0.0000 C   0  0  0  0  0  0  0  0  0  0  0  0
    2.5081    6.0187    0.0000 C   0  0  0  0  0  0  0  0  0  0  0  0
    2.9716    7.4453    0.0000 C   0  0  0  0  0  0  0  0  0  0  0  0
    1.9679    8.5600    0.0000 C   0  0  0  0  0  0  0  0  0  0  0  0
    0.5007    8.2481    0.0000 C   0  0  0  0  0  0  0  0  0  0  0  0
   -0.5030    9.3629    0.0000 N   0  0  0  0  0  0  0  0  0  0  0  0
   -0.0395   10.7895    0.0000 C   0  0  0  0  0  0  0  0  0  0  0  0
    1.4277   11.1013    0.0000 O   0  0  0  0  0  0  0  0  0  0  0  0
   -1.0432   11.9042    0.0000 N   0  0  0  0  0  0  0  0  0  0  0  0
   -0.5797   13.3308    0.0000 C   0  0  0  0  0  0  0  0  0  0  0  0
    0.8876   13.6426    0.0000 C   0  0  0  0  0  0  0  0  0  0  0  0
    1.3511   15.0692    0.0000 C   0  0  0  0  0  0  0  0  0  0  0  0
    0.3474   16.1839    0.0000 C   0  0  0  0  0  0  0  0  0  0  0  0
    0.8109   17.6105    0.0000 Cl  0  0  0  0  0  0  0  0  0  0  0  0
   -1.1198   15.8721    0.0000 C   0  0  0  0  0  0  0  0  0  0  0  0
   -2.1235   16.9868    0.0000 C   0  0  0  0  0  0  0  0  0  0  0  0
   -3.1272   18.1015    0.0000 F   0  0  0  0  0  0  0  0  0  0  0  0
   -3.2382   15.9831    0.0000 F   0  0  0  0  0  0  0  0  0  0  0  0
   -1.0088   17.9905    0.0000 F   0  0  0  0  0  0  0  0  0  0  0  0
   -1.5834   14.4455    0.0000 C   0  0  0  0  0  0  0  0  0  0  0  0
    0.0372    6.8216    0.0000 C   0  0  0  0  0  0  0  0  0  0  0  0
    0.7500    1.2990    0.0000 N   0  0  0  0  0  0  0  0  0  0  0  0
  2  1  1  1
  2  3  1  0
  2  4  1  0
  4  5  1  0
  5  6  1  0
  6  7  2  0
  7  8  1  0
  8  9  2  0
  9 10  1  0
 10 11  1  0
 11 12  1  0
 12 13  2  0
 13 14  1  0
 14 15  2  0
 15 16  1  0
 16 17  1  0
 17 18  2  0
 18 19  1  0
 19 20  2  0
 20 21  1  0
 21 22  1  0
 22 23  1  0
 23 24  2  0
 23 25  1  0
 25 26  1  0
 26 27  2  0
 27 28  1  0
 28 29  2  0
 29 30  1  0
 29 31  1  0
 31 32  1  0
 32 33  1  0
 32 34  1  0
 32 35  1  0
 31 36  2  0
 21 37  2  0
 10 38  2  0
 38  6  1  0
 15 11  1  0
 37 17  1  0
 36 26  1  0
M  END
>  <Compound_ID>  (311) 
CHEMBL3309549

>  <Molecule Name>  (311) 
nan

>  <Molecular Weight>  (311) 
545.95

>  <AlogP>  (311) 
5.36

>  <Smiles>  (311) 
C[C@H](O)CNc1nccc(-n2ccnc2Cc2cccc(NC(=O)Nc3ccc(Cl)c(C(F)(F)F)c3)c2)n1

>  <Standard Type>  (311) 
Inhibition

>  <Standard Relation>  (311) 
'='

>  <Standard Units>  (311) 
%

>  <Standard Value>  (311) 
0.0

>  <Assay ChEMBL ID>  (311) 
CHEMBL3361631

>  <Assay Description>  (311) 
Inhibition of SYK (unknown origin) at 10 uM

>  <BAO Format ID>  (311) 
BAO_0000357

>  <BAO Label>  (311) 
single protein format

>  <Assay Organism>  (311) 
Homo sapiens

>  <Target ChEMBL ID>  (311) 
CHEMBL2599

>  <Target Name>  (311) 
Tyrosine-protein kinase SYK

>  <Target Organism>  (311) 
Homo sapiens

>  <Target Type>  (311) 
SINGLE PROTEIN

>  <Document ChEMBL ID>  (311) 
CHEMBL3351907

>  <Source Description>  (311) 
Scientific Literature

>  <Document Journal>  (311) 
Bioorg Med Chem Lett

>  <Document Year>  (311) 
2014.0

>  <Active>  (311) 
0.0

>  <bits>  (311) 
<rdkit.DataStructs.cDataStructs.ExplicitBitVect object at 0x00000193F34100B0>

>  <Group>  (311) 
G2

$$$$

     RDKit          2D

 19 20  0  0  0  0  0  0  0  0999 V2000
    5.2500   -1.2990    0.0000 C   0  0  0  0  0  0  0  0  0  0  0  0
    3.7500   -1.2990    0.0000 N   0  0  0  0  0  0  0  0  0  0  0  0
    3.0000    0.0000    0.0000 C   0  0  0  0  0  0  0  0  0  0  0  0
    3.7500    1.2990    0.0000 O   0  0  0  0  0  0  0  0  0  0  0  0
    1.5000    0.0000    0.0000 C   0  0  0  0  0  0  0  0  0  0  0  0
    0.7500   -1.2990    0.0000 C   0  0  0  0  0  0  0  0  0  0  0  0
   -0.7500   -1.2990    0.0000 N   0  0  0  0  0  0  0  0  0  0  0  0
   -1.5000    0.0000    0.0000 C   0  0  0  0  0  0  0  0  0  0  0  0
   -0.7500    1.2990    0.0000 C   0  0  0  0  0  0  0  0  0  0  0  0
   -1.5000    2.5981    0.0000 C   0  0  0  0  0  0  0  0  0  0  0  0
   -0.7500    3.8971    0.0000 C   0  0  0  0  0  0  0  0  0  0  0  0
   -1.5000    5.1962    0.0000 C   0  0  0  0  0  0  0  0  0  0  0  0
   -0.7500    6.4952    0.0000 C   0  0  0  0  0  0  0  0  0  0  0  0
   -1.5000    7.7942    0.0000 C   0  0  0  0  0  0  0  0  0  0  0  0
   -3.0000    7.7942    0.0000 C   0  0  0  0  0  0  0  0  0  0  0  0
   -3.7500    6.4952    0.0000 C   0  0  0  0  0  0  0  0  0  0  0  0
   -3.0000    5.1962    0.0000 C   0  0  0  0  0  0  0  0  0  0  0  0
   -3.7500    3.8971    0.0000 Cl  0  0  0  0  0  0  0  0  0  0  0  0
    0.7500    1.2990    0.0000 C   0  0  0  0  0  0  0  0  0  0  0  0
  1  2  1  0
  2  3  1  0
  3  4  2  0
  3  5  1  0
  5  6  2  0
  6  7  1  0
  7  8  2  0
  8  9  1  0
  9 10  1  0
 10 11  2  0
 11 12  1  0
 12 13  2  0
 13 14  1  0
 14 15  2  0
 15 16  1  0
 16 17  2  0
 17 18  1  0
  9 19  2  0
 19  5  1  0
 17 12  1  0
M  END
>  <Compound_ID>  (312) 
CHEMBL218970

>  <Molecule Name>  (312) 
GW445017X

>  <Molecular Weight>  (312) 
272.74

>  <AlogP>  (312) 
3.27

>  <Smiles>  (312) 
CNC(=O)c1cncc(/C=C/c2ccccc2Cl)c1

>  <Standard Type>  (312) 
Inhibition

>  <Standard Relation>  (312) 
'='

>  <Standard Units>  (312) 
%

>  <Standard Value>  (312) 
7.26

>  <Assay ChEMBL ID>  (312) 
CHEMBL1962174

>  <Assay Description>  (312) 
GSK_PKIS: SYK mean inhibition at 0.1 uM [Nanosyn]

>  <BAO Format ID>  (312) 
BAO_0000357

>  <BAO Label>  (312) 
single protein format

>  <Assay Organism>  (312) 
None

>  <Target ChEMBL ID>  (312) 
CHEMBL2599

>  <Target Name>  (312) 
Tyrosine-protein kinase SYK

>  <Target Organism>  (312) 
Homo sapiens

>  <Target Type>  (312) 
SINGLE PROTEIN

>  <Document ChEMBL ID>  (312) 
CHEMBL1961873

>  <Source Description>  (312) 
GSK Published Kinase Inhibitor Set

>  <Document Journal>  (312) 
nan

>  <Document Year>  (312) 
nan

>  <Active>  (312) 
0.0

>  <bits>  (312) 
<rdkit.DataStructs.cDataStructs.ExplicitBitVect object at 0x00000193F34107B0>

>  <Group>  (312) 
G2

$$$$

     RDKit          2D

 28 31  0  0  0  0  0  0  0  0999 V2000
   -1.8836    6.6179    0.0000 C   0  0  0  0  0  0  0  0  0  0  0  0
   -3.3102    6.1544    0.0000 C   0  0  0  0  0  0  0  0  0  0  0  0
   -3.6221    4.6871    0.0000 N   0  0  0  0  0  0  0  0  0  0  0  0
   -2.5074    3.6834    0.0000 C   0  0  0  0  0  0  0  0  0  0  0  0
   -1.0808    4.1470    0.0000 C   0  0  0  0  0  0  0  0  0  0  0  0
   -5.0487    4.2236    0.0000 C   0  0  0  0  0  0  0  0  0  0  0  0
   -5.3605    2.7564    0.0000 C   0  0  0  0  0  0  0  0  0  0  0  0
   -4.2458    1.7527    0.0000 C   0  0  0  0  0  0  0  0  0  0  0  0
   -4.5577    0.2855    0.0000 C   0  0  0  0  0  0  0  0  0  0  0  0
   -5.9843   -0.1781    0.0000 C   0  0  0  0  0  0  0  0  0  0  0  0
   -6.2961   -1.6453    0.0000 N   0  0  0  0  0  0  0  0  0  0  0  0
   -5.1814   -2.6490    0.0000 C   0  0  0  0  0  0  0  0  0  0  0  0
   -5.4933   -4.1162    0.0000 N   0  0  0  0  0  0  0  0  0  0  0  0
   -4.3786   -5.1199    0.0000 C   0  0  0  0  0  0  0  0  0  0  0  0
   -2.9520   -4.6564    0.0000 C   0  0  0  0  0  0  0  0  0  0  0  0
   -2.6401   -3.1891    0.0000 C   0  0  0  0  0  0  0  0  0  0  0  0
   -1.2135   -2.7256    0.0000 C   0  0  0  0  0  0  0  0  0  0  0  0
   -0.0000   -3.6073    0.0000 C   0  0  0  0  0  0  0  0  0  0  0  0
    1.2135   -2.7256    0.0000 N   0  0  0  0  0  0  0  0  0  0  0  0
    0.7500   -1.2990    0.0000 N   0  0  0  0  0  0  0  0  0  0  0  0
    1.5000    0.0000    0.0000 N   0  0  0  0  0  0  0  0  0  0  0  0
    0.7500    1.2990    0.0000 C   0  0  0  0  0  0  0  0  0  0  0  0
   -0.7500    1.2990    0.0000 C   0  0  0  0  0  0  0  0  0  0  0  0
   -1.5000    0.0000    0.0000 C   0  0  0  0  0  0  0  0  0  0  0  0
   -0.7500   -1.2990    0.0000 C   0  0  0  0  0  0  0  0  0  0  0  0
   -3.7548   -2.1855    0.0000 N   0  0  0  0  0  0  0  0  0  0  0  0
   -7.0990    0.8256    0.0000 C   0  0  0  0  0  0  0  0  0  0  0  0
   -6.7871    2.2929    0.0000 C   0  0  0  0  0  0  0  0  0  0  0  0
  1  2  1  0
  2  3  1  0
  3  4  1  0
  4  5  1  0
  3  6  1  0
  6  7  1  0
  7  8  2  0
  8  9  1  0
  9 10  2  0
 10 11  1  0
 11 12  1  0
 12 13  2  0
 13 14  1  0
 14 15  2  0
 15 16  1  0
 16 17  1  0
 17 18  1  0
 18 19  2  0
 19 20  1  0
 20 21  1  0
 21 22  2  0
 22 23  1  0
 23 24  2  0
 24 25  1  0
 16 26  2  0
 10 27  1  0
 27 28  2  0
 28  7  1  0
 26 12  1  0
 25 17  2  0
 25 20  1  0
M  END
>  <Compound_ID>  (313) 
CHEMBL1882194

>  <Molecule Name>  (313) 
GW780056X

>  <Molecular Weight>  (313) 
373.46

>  <AlogP>  (313) 
3.77

>  <Smiles>  (313) 
CCN(CC)Cc1ccc(Nc2nccc(-c3cnn4ncccc34)n2)cc1

>  <Standard Type>  (313) 
Inhibition

>  <Standard Relation>  (313) 
'='

>  <Standard Units>  (313) 
%

>  <Standard Value>  (313) 
1.59

>  <Assay ChEMBL ID>  (313) 
CHEMBL1962174

>  <Assay Description>  (313) 
GSK_PKIS: SYK mean inhibition at 0.1 uM [Nanosyn]

>  <BAO Format ID>  (313) 
BAO_0000357

>  <BAO Label>  (313) 
single protein format

>  <Assay Organism>  (313) 
None

>  <Target ChEMBL ID>  (313) 
CHEMBL2599

>  <Target Name>  (313) 
Tyrosine-protein kinase SYK

>  <Target Organism>  (313) 
Homo sapiens

>  <Target Type>  (313) 
SINGLE PROTEIN

>  <Document ChEMBL ID>  (313) 
CHEMBL1961873

>  <Source Description>  (313) 
GSK Published Kinase Inhibitor Set

>  <Document Journal>  (313) 
nan

>  <Document Year>  (313) 
nan

>  <Active>  (313) 
0.0

>  <bits>  (313) 
<rdkit.DataStructs.cDataStructs.ExplicitBitVect object at 0x00000193F3412650>

>  <Group>  (313) 
G2

$$$$

     RDKit          2D

 22 25  0  0  0  0  0  0  0  0999 V2000
   -0.0000   -5.1073    0.0000 O   0  0  0  0  0  0  0  0  0  0  0  0
   -0.0000   -3.6073    0.0000 C   0  0  0  0  0  0  0  0  0  0  0  0
    1.2135   -2.7256    0.0000 N   0  0  0  0  0  0  0  0  0  0  0  0
    0.7500   -1.2990    0.0000 C   0  0  0  0  0  0  0  0  0  0  0  0
    1.5000    0.0000    0.0000 C   0  0  0  0  0  0  0  0  0  0  0  0
    0.7500    1.2990    0.0000 C   0  0  0  0  0  0  0  0  0  0  0  0
   -0.7500    1.2990    0.0000 C   0  0  0  0  0  0  0  0  0  0  0  0
   -1.5000    0.0000    0.0000 C   0  0  0  0  0  0  0  0  0  0  0  0
   -0.7500   -1.2990    0.0000 C   0  0  0  0  0  0  0  0  0  0  0  0
   -1.2135   -2.7256    0.0000 C   0  0  0  0  0  0  0  0  0  0  0  0
   -2.6401   -3.1891    0.0000 C   0  0  0  0  0  0  0  0  0  0  0  0
   -2.9520   -4.6564    0.0000 N   0  0  0  0  0  0  0  0  0  0  0  0
   -4.3786   -5.1199    0.0000 C   0  0  0  0  0  0  0  0  0  0  0  0
   -5.4933   -4.1162    0.0000 C   0  0  0  0  0  0  0  0  0  0  0  0
   -6.9199   -4.5797    0.0000 C   0  0  0  0  0  0  0  0  0  0  0  0
   -7.2317   -6.0469    0.0000 C   0  0  0  0  0  0  0  0  0  0  0  0
   -8.5308   -6.7969    0.0000 N   0  0  0  0  0  0  0  0  0  0  0  0
   -8.2189   -8.2642    0.0000 C   0  0  0  0  0  0  0  0  0  0  0  0
   -9.2226   -9.3789    0.0000 O   0  0  0  0  0  0  0  0  0  0  0  0
   -6.7271   -8.4210    0.0000 N   0  0  0  0  0  0  0  0  0  0  0  0
   -6.1170   -7.0506    0.0000 C   0  0  0  0  0  0  0  0  0  0  0  0
   -4.6904   -6.5871    0.0000 C   0  0  0  0  0  0  0  0  0  0  0  0
  1  2  2  0
  2  3  1  0
  3  4  1  0
  4  5  2  0
  5  6  1  0
  6  7  2  0
  7  8  1  0
  8  9  2  0
  9 10  1  0
 10 11  2  0
 11 12  1  0
 12 13  1  0
 13 14  2  0
 14 15  1  0
 15 16  2  0
 16 17  1  0
 17 18  1  0
 18 19  2  0
 18 20  1  0
 20 21  1  0
 21 22  2  0
 10  2  1  0
 22 13  1  0
  9  4  1  0
 21 16  1  0
M  END
>  <Compound_ID>  (314) 
CHEMBL1794057

>  <Molecule Name>  (314) 
GW284408X

>  <Molecular Weight>  (314) 
292.3

>  <AlogP>  (314) 
2.26

>  <Smiles>  (314) 
O=C1Nc2ccccc2/C1=C/Nc1ccc2[nH]c(=O)[nH]c2c1

>  <Standard Type>  (314) 
Inhibition

>  <Standard Relation>  (314) 
'='

>  <Standard Units>  (314) 
%

>  <Standard Value>  (314) 
-5.15

>  <Assay ChEMBL ID>  (314) 
CHEMBL1962175

>  <Assay Description>  (314) 
GSK_PKIS: SYK mean inhibition at 1 uM [Nanosyn]

>  <BAO Format ID>  (314) 
BAO_0000357

>  <BAO Label>  (314) 
single protein format

>  <Assay Organism>  (314) 
None

>  <Target ChEMBL ID>  (314) 
CHEMBL2599

>  <Target Name>  (314) 
Tyrosine-protein kinase SYK

>  <Target Organism>  (314) 
Homo sapiens

>  <Target Type>  (314) 
SINGLE PROTEIN

>  <Document ChEMBL ID>  (314) 
CHEMBL1961873

>  <Source Description>  (314) 
GSK Published Kinase Inhibitor Set

>  <Document Journal>  (314) 
nan

>  <Document Year>  (314) 
nan

>  <Active>  (314) 
0.0

>  <bits>  (314) 
<rdkit.DataStructs.cDataStructs.ExplicitBitVect object at 0x00000193F3411460>

>  <Group>  (314) 
G2

$$$$

     RDKit          2D

 22 25  0  0  0  0  0  0  0  0999 V2000
   -3.7701    2.1590    0.0000 C   0  0  0  0  0  0  0  0  0  0  0  0
   -4.0819    0.6918    0.0000 C   0  0  0  0  0  0  0  0  0  0  0  0
   -2.9672   -0.3119    0.0000 N   0  0  0  0  0  0  0  0  0  0  0  0
   -3.1240   -1.8037    0.0000 C   0  0  0  0  0  0  0  0  0  0  0  0
   -4.4231   -2.5537    0.0000 C   0  0  0  0  0  0  0  0  0  0  0  0
   -4.5798   -4.0454    0.0000 N   0  0  0  0  0  0  0  0  0  0  0  0
   -6.0471   -4.3573    0.0000 O   0  0  0  0  0  0  0  0  0  0  0  0
   -6.7971   -3.0583    0.0000 N   0  0  0  0  0  0  0  0  0  0  0  0
   -5.7934   -1.9435    0.0000 C   0  0  0  0  0  0  0  0  0  0  0  0
   -6.1052   -0.4763    0.0000 N   0  0  0  0  0  0  0  0  0  0  0  0
   -1.7537   -2.4138    0.0000 N   0  0  0  0  0  0  0  0  0  0  0  0
   -0.7500   -1.2990    0.0000 C   0  0  0  0  0  0  0  0  0  0  0  0
    0.7500   -1.2990    0.0000 C   0  0  0  0  0  0  0  0  0  0  0  0
    1.5000   -2.5981    0.0000 N   0  0  0  0  0  0  0  0  0  0  0  0
    2.9918   -2.7549    0.0000 C   0  0  0  0  0  0  0  0  0  0  0  0
    3.3037   -4.2221    0.0000 C   0  0  0  0  0  0  0  0  0  0  0  0
    2.0046   -4.9721    0.0000 C   0  0  0  0  0  0  0  0  0  0  0  0
    0.8899   -3.9684    0.0000 C   0  0  0  0  0  0  0  0  0  0  0  0
    1.5000    0.0000    0.0000 N   0  0  0  0  0  0  0  0  0  0  0  0
    0.7500    1.2990    0.0000 C   0  0  0  0  0  0  0  0  0  0  0  0
   -0.7500    1.2990    0.0000 C   0  0  0  0  0  0  0  0  0  0  0  0
   -1.5000    0.0000    0.0000 C   0  0  0  0  0  0  0  0  0  0  0  0
  1  2  1  0
  2  3  1  0
  3  4  1  0
  4  5  1  0
  5  6  2  0
  6  7  1  0
  7  8  1  0
  8  9  2  0
  9 10  1  0
  4 11  2  0
 11 12  1  0
 12 13  2  0
 13 14  1  0
 14 15  1  0
 15 16  1  0
 16 17  1  0
 17 18  1  0
 13 19  1  0
 19 20  2  0
 20 21  1  0
 21 22  2  0
 22  3  1  0
  9  5  1  0
 22 12  1  0
 18 14  1  0
M  END
>  <Compound_ID>  (315) 
CHEMBL187985

>  <Molecule Name>  (315) 
nan

>  <Molecular Weight>  (315) 
299.34

>  <AlogP>  (315) 
1.68

>  <Smiles>  (315) 
CCn1c(-c2nonc2N)nc2c(N3CCCC3)nccc21

>  <Standard Type>  (315) 
Inhibition

>  <Standard Relation>  (315) 
'='

>  <Standard Units>  (315) 
%

>  <Standard Value>  (315) 
2.9

>  <Assay ChEMBL ID>  (315) 
CHEMBL1962175

>  <Assay Description>  (315) 
GSK_PKIS: SYK mean inhibition at 1 uM [Nanosyn]

>  <BAO Format ID>  (315) 
BAO_0000357

>  <BAO Label>  (315) 
single protein format

>  <Assay Organism>  (315) 
None

>  <Target ChEMBL ID>  (315) 
CHEMBL2599

>  <Target Name>  (315) 
Tyrosine-protein kinase SYK

>  <Target Organism>  (315) 
Homo sapiens

>  <Target Type>  (315) 
SINGLE PROTEIN

>  <Document ChEMBL ID>  (315) 
CHEMBL1961873

>  <Source Description>  (315) 
GSK Published Kinase Inhibitor Set

>  <Document Journal>  (315) 
nan

>  <Document Year>  (315) 
nan

>  <Active>  (315) 
0.0

>  <bits>  (315) 
<rdkit.DataStructs.cDataStructs.ExplicitBitVect object at 0x00000193F3413BC0>

>  <Group>  (315) 
G2

$$$$

     RDKit          2D

 22 24  0  0  0  0  0  0  0  0999 V2000
    3.7500   -1.2990    0.0000 C   0  0  0  0  0  0  0  0  0  0  0  0
    3.0000    0.0000    0.0000 O   0  0  0  0  0  0  0  0  0  0  0  0
    1.5000    0.0000    0.0000 C   0  0  0  0  0  0  0  0  0  0  0  0
    0.7500   -1.2990    0.0000 C   0  0  0  0  0  0  0  0  0  0  0  0
   -0.7500   -1.2990    0.0000 C   0  0  0  0  0  0  0  0  0  0  0  0
   -1.5000    0.0000    0.0000 C   0  0  0  0  0  0  0  0  0  0  0  0
   -0.7500    1.2990    0.0000 C   0  0  0  0  0  0  0  0  0  0  0  0
    0.7500    1.2990    0.0000 C   0  0  0  0  0  0  0  0  0  0  0  0
    1.5000    2.5981    0.0000 C   0  0  0  0  0  0  0  0  0  0  0  0
    0.8899    3.9684    0.0000 C   0  0  0  0  0  0  0  0  0  0  0  0
   -0.5773    4.2803    0.0000 N   0  0  0  0  0  0  0  0  0  0  0  0
   -1.0409    5.7068    0.0000 C   0  0  0  0  0  0  0  0  0  0  0  0
   -0.0372    6.8216    0.0000 C   0  0  0  0  0  0  0  0  0  0  0  0
   -0.5007    8.2481    0.0000 C   0  0  0  0  0  0  0  0  0  0  0  0
   -1.9679    8.5600    0.0000 C   0  0  0  0  0  0  0  0  0  0  0  0
   -2.9716    7.4453    0.0000 C   0  0  0  0  0  0  0  0  0  0  0  0
   -2.5081    6.0187    0.0000 C   0  0  0  0  0  0  0  0  0  0  0  0
    2.0046    4.9721    0.0000 C   0  0  0  0  0  0  0  0  0  0  0  0
    1.8478    6.4639    0.0000 O   0  0  0  0  0  0  0  0  0  0  0  0
    3.3037    4.2221    0.0000 N   0  0  0  0  0  0  0  0  0  0  0  0
    2.9918    2.7549    0.0000 C   0  0  0  0  0  0  0  0  0  0  0  0
    3.9955    1.6402    0.0000 O   0  0  0  0  0  0  0  0  0  0  0  0
  1  2  1  0
  2  3  1  0
  3  4  2  0
  4  5  1  0
  5  6  2  0
  6  7  1  0
  7  8  2  0
  8  9  1  0
  9 10  2  0
 10 11  1  0
 11 12  1  0
 12 13  2  0
 13 14  1  0
 14 15  2  0
 15 16  1  0
 16 17  2  0
 10 18  1  0
 18 19  2  0
 18 20  1  0
 20 21  1  0
 21 22  2  0
  8  3  1  0
 21  9  1  0
 17 12  1  0
M  END
>  <Compound_ID>  (316) 
CHEMBL156263

>  <Molecule Name>  (316) 
nan

>  <Molecular Weight>  (316) 
294.31

>  <AlogP>  (316) 
2.17

>  <Smiles>  (316) 
COc1ccccc1C1=C(Nc2ccccc2)C(=O)NC1=O

>  <Standard Type>  (316) 
Inhibition

>  <Standard Relation>  (316) 
'='

>  <Standard Units>  (316) 
%

>  <Standard Value>  (316) 
2.4

>  <Assay ChEMBL ID>  (316) 
CHEMBL1962174

>  <Assay Description>  (316) 
GSK_PKIS: SYK mean inhibition at 0.1 uM [Nanosyn]

>  <BAO Format ID>  (316) 
BAO_0000357

>  <BAO Label>  (316) 
single protein format

>  <Assay Organism>  (316) 
None

>  <Target ChEMBL ID>  (316) 
CHEMBL2599

>  <Target Name>  (316) 
Tyrosine-protein kinase SYK

>  <Target Organism>  (316) 
Homo sapiens

>  <Target Type>  (316) 
SINGLE PROTEIN

>  <Document ChEMBL ID>  (316) 
CHEMBL1961873

>  <Source Description>  (316) 
GSK Published Kinase Inhibitor Set

>  <Document Journal>  (316) 
nan

>  <Document Year>  (316) 
nan

>  <Active>  (316) 
0.0

>  <bits>  (316) 
<rdkit.DataStructs.cDataStructs.ExplicitBitVect object at 0x00000193F3413E60>

>  <Group>  (316) 
G2

$$$$

     RDKit          2D

 42 46  0  0  0  0  0  0  0  0999 V2000
   -2.5981  -14.1073    0.0000 C   0  0  0  0  0  0  0  0  0  0  0  0
   -2.5981  -12.6073    0.0000 N   0  0  0  0  0  0  0  0  0  0  0  0
   -3.8971  -11.8573    0.0000 C   0  0  0  0  0  0  0  0  0  0  0  0
   -3.8971  -10.3573    0.0000 C   0  0  0  0  0  0  0  0  0  0  0  0
   -2.5981   -9.6073    0.0000 N   0  0  0  0  0  0  0  0  0  0  0  0
   -2.5981   -8.1073    0.0000 C   0  0  0  0  0  0  0  0  0  0  0  0
   -1.2990   -7.3573    0.0000 C   0  0  0  0  0  0  0  0  0  0  0  0
   -1.2990   -5.8573    0.0000 C   0  0  0  0  0  0  0  0  0  0  0  0
   -0.0000   -5.1073    0.0000 N   0  0  0  0  0  0  0  0  0  0  0  0
   -0.0000   -3.6073    0.0000 C   0  0  0  0  0  0  0  0  0  0  0  0
    1.2135   -2.7256    0.0000 N   0  0  0  0  0  0  0  0  0  0  0  0
    0.7500   -1.2990    0.0000 C   0  0  0  0  0  0  0  0  0  0  0  0
    1.5000    0.0000    0.0000 C   0  0  0  0  0  0  0  0  0  0  0  0
    0.7500    1.2990    0.0000 C   0  0  0  0  0  0  0  0  0  0  0  0
   -0.7500    1.2990    0.0000 C   0  0  0  0  0  0  0  0  0  0  0  0
   -1.5000    2.5981    0.0000 O   0  0  0  0  0  0  0  0  0  0  0  0
   -0.7500    3.8971    0.0000 C   0  0  0  0  0  0  0  0  0  0  0  0
    0.7500    3.8971    0.0000 C   0  0  0  0  0  0  0  0  0  0  0  0
    1.5000    5.1962    0.0000 C   0  0  0  0  0  0  0  0  0  0  0  0
    0.7500    6.4952    0.0000 C   0  0  0  0  0  0  0  0  0  0  0  0
    1.5000    7.7942    0.0000 N   0  0  0  0  0  0  0  0  0  0  0  0
    3.0000    7.7942    0.0000 C   0  0  0  0  0  0  0  0  0  0  0  0
    3.7500    6.4952    0.0000 O   0  0  0  0  0  0  0  0  0  0  0  0
    3.7500    9.0933    0.0000 N   0  0  0  0  0  0  0  0  0  0  0  0
    5.2500    9.0933    0.0000 C   0  0  0  0  0  0  0  0  0  0  0  0
    6.0000    7.7942    0.0000 C   0  0  0  0  0  0  0  0  0  0  0  0
    7.5000    7.7942    0.0000 C   0  0  0  0  0  0  0  0  0  0  0  0
    8.2500    6.4952    0.0000 C   0  0  0  0  0  0  0  0  0  0  0  0
    9.0000    5.1962    0.0000 F   0  0  0  0  0  0  0  0  0  0  0  0
    6.9510    5.7452    0.0000 F   0  0  0  0  0  0  0  0  0  0  0  0
    9.5490    7.2452    0.0000 F   0  0  0  0  0  0  0  0  0  0  0  0
    8.2500    9.0933    0.0000 C   0  0  0  0  0  0  0  0  0  0  0  0
    7.5000   10.3923    0.0000 C   0  0  0  0  0  0  0  0  0  0  0  0
    6.0000   10.3923    0.0000 C   0  0  0  0  0  0  0  0  0  0  0  0
    5.2500   11.6913    0.0000 F   0  0  0  0  0  0  0  0  0  0  0  0
   -0.7500    6.4952    0.0000 C   0  0  0  0  0  0  0  0  0  0  0  0
   -1.5000    5.1962    0.0000 C   0  0  0  0  0  0  0  0  0  0  0  0
   -1.5000    0.0000    0.0000 C   0  0  0  0  0  0  0  0  0  0  0  0
   -0.7500   -1.2990    0.0000 C   0  0  0  0  0  0  0  0  0  0  0  0
   -1.2135   -2.7256    0.0000 N   0  0  0  0  0  0  0  0  0  0  0  0
   -1.2990  -10.3573    0.0000 C   0  0  0  0  0  0  0  0  0  0  0  0
   -1.2990  -11.8573    0.0000 C   0  0  0  0  0  0  0  0  0  0  0  0
  1  2  1  0
  2  3  1  0
  3  4  1  0
  4  5  1  0
  5  6  1  0
  6  7  1  0
  7  8  1  0
  8  9  1  0
  9 10  1  0
 10 11  2  0
 11 12  1  0
 12 13  2  0
 13 14  1  0
 14 15  2  0
 15 16  1  0
 16 17  1  0
 17 18  2  0
 18 19  1  0
 19 20  2  0
 20 21  1  0
 21 22  1  0
 22 23  2  0
 22 24  1  0
 24 25  1  0
 25 26  2  0
 26 27  1  0
 27 28  1  0
 28 29  1  0
 28 30  1  0
 28 31  1  0
 27 32  2  0
 32 33  1  0
 33 34  2  0
 34 35  1  0
 20 36  1  0
 36 37  2  0
 15 38  1  0
 38 39  2  0
 39 40  1  0
  5 41  1  0
 41 42  1  0
 42  2  1  0
 40 10  1  0
 39 12  1  0
 37 17  1  0
 34 25  1  0
M  END
>  <Compound_ID>  (317) 
CHEMBL1909372

>  <Molecule Name>  (317) 
GW700494A

>  <Molecular Weight>  (317) 
622.07

>  <AlogP>  (317) 
6.21

>  <Smiles>  (317) 
CN1CCN(CCCNc2nc3ccc(Oc4ccc(NC(=O)Nc5cc(C(F)(F)F)ccc5F)cc4)cc3[nH]2)CC1

>  <Standard Type>  (317) 
Inhibition

>  <Standard Relation>  (317) 
'='

>  <Standard Units>  (317) 
%

>  <Standard Value>  (317) 
0.86

>  <Assay ChEMBL ID>  (317) 
CHEMBL1962175

>  <Assay Description>  (317) 
GSK_PKIS: SYK mean inhibition at 1 uM [Nanosyn]

>  <BAO Format ID>  (317) 
BAO_0000357

>  <BAO Label>  (317) 
single protein format

>  <Assay Organism>  (317) 
None

>  <Target ChEMBL ID>  (317) 
CHEMBL2599

>  <Target Name>  (317) 
Tyrosine-protein kinase SYK

>  <Target Organism>  (317) 
Homo sapiens

>  <Target Type>  (317) 
SINGLE PROTEIN

>  <Document ChEMBL ID>  (317) 
CHEMBL1961873

>  <Source Description>  (317) 
GSK Published Kinase Inhibitor Set

>  <Document Journal>  (317) 
nan

>  <Document Year>  (317) 
nan

>  <Active>  (317) 
0.0

>  <bits>  (317) 
<rdkit.DataStructs.cDataStructs.ExplicitBitVect object at 0x00000193F3410900>

>  <Group>  (317) 
G2

$$$$

     RDKit          2D

 27 30  0  0  0  0  0  0  0  0999 V2000
   -4.6904   -6.5871    0.0000 N   0  0  0  0  0  0  0  0  0  0  0  0
   -4.3786   -5.1199    0.0000 C   0  0  0  0  0  0  0  0  0  0  0  0
   -5.4933   -4.1162    0.0000 N   0  0  0  0  0  0  0  0  0  0  0  0
   -5.1814   -2.6490    0.0000 C   0  0  0  0  0  0  0  0  0  0  0  0
   -3.7548   -2.1855    0.0000 C   0  0  0  0  0  0  0  0  0  0  0  0
   -2.6401   -3.1891    0.0000 C   0  0  0  0  0  0  0  0  0  0  0  0
   -1.2135   -2.7256    0.0000 C   0  0  0  0  0  0  0  0  0  0  0  0
   -0.0000   -3.6073    0.0000 C   0  0  0  0  0  0  0  0  0  0  0  0
   -0.0000   -5.1073    0.0000 C   0  0  0  0  0  0  0  0  0  0  0  0
   -1.2990   -5.8573    0.0000 C   0  0  0  0  0  0  0  0  0  0  0  0
   -1.2990   -7.3573    0.0000 C   0  0  0  0  0  0  0  0  0  0  0  0
   -0.0000   -8.1073    0.0000 C   0  0  0  0  0  0  0  0  0  0  0  0
    0.0000   -9.6073    0.0000 F   0  0  0  0  0  0  0  0  0  0  0  0
    1.2990   -7.3573    0.0000 C   0  0  0  0  0  0  0  0  0  0  0  0
    1.2990   -5.8573    0.0000 C   0  0  0  0  0  0  0  0  0  0  0  0
    1.2135   -2.7256    0.0000 N   0  0  0  0  0  0  0  0  0  0  0  0
    0.7500   -1.2990    0.0000 N   0  0  0  0  0  0  0  0  0  0  0  0
    1.5000    0.0000    0.0000 C   0  0  0  0  0  0  0  0  0  0  0  0
    0.7500    1.2990    0.0000 C   0  0  0  0  0  0  0  0  0  0  0  0
    1.5000    2.5981    0.0000 C   0  0  0  0  0  0  0  0  0  0  0  0
    2.2500    3.8971    0.0000 F   0  0  0  0  0  0  0  0  0  0  0  0
    2.7990    1.8481    0.0000 F   0  0  0  0  0  0  0  0  0  0  0  0
    0.2010    3.3481    0.0000 F   0  0  0  0  0  0  0  0  0  0  0  0
   -0.7500    1.2990    0.0000 C   0  0  0  0  0  0  0  0  0  0  0  0
   -1.5000    0.0000    0.0000 C   0  0  0  0  0  0  0  0  0  0  0  0
   -0.7500   -1.2990    0.0000 C   0  0  0  0  0  0  0  0  0  0  0  0
   -2.9520   -4.6564    0.0000 N   0  0  0  0  0  0  0  0  0  0  0  0
  1  2  1  0
  2  3  2  0
  3  4  1  0
  4  5  2  0
  5  6  1  0
  6  7  1  0
  7  8  1  0
  8  9  1  0
  9 10  2  0
 10 11  1  0
 11 12  2  0
 12 13  1  0
 12 14  1  0
 14 15  2  0
  8 16  2  0
 16 17  1  0
 17 18  1  0
 18 19  2  0
 19 20  1  0
 20 21  1  0
 20 22  1  0
 20 23  1  0
 19 24  1  0
 24 25  2  0
 25 26  1  0
  6 27  2  0
 27  2  1  0
 26  7  2  0
 15  9  1  0
 26 17  1  0
M  END
>  <Compound_ID>  (318) 
CHEMBL1909402

>  <Molecule Name>  (318) 
GW568326X

>  <Molecular Weight>  (318) 
373.31

>  <AlogP>  (318) 
4.20

>  <Smiles>  (318) 
Nc1nccc(-c2c(-c3ccc(F)cc3)nn3cc(C(F)(F)F)ccc23)n1

>  <Standard Type>  (318) 
Inhibition

>  <Standard Relation>  (318) 
'='

>  <Standard Units>  (318) 
%

>  <Standard Value>  (318) 
-1.5

>  <Assay ChEMBL ID>  (318) 
CHEMBL1962175

>  <Assay Description>  (318) 
GSK_PKIS: SYK mean inhibition at 1 uM [Nanosyn]

>  <BAO Format ID>  (318) 
BAO_0000357

>  <BAO Label>  (318) 
single protein format

>  <Assay Organism>  (318) 
None

>  <Target ChEMBL ID>  (318) 
CHEMBL2599

>  <Target Name>  (318) 
Tyrosine-protein kinase SYK

>  <Target Organism>  (318) 
Homo sapiens

>  <Target Type>  (318) 
SINGLE PROTEIN

>  <Document ChEMBL ID>  (318) 
CHEMBL1961873

>  <Source Description>  (318) 
GSK Published Kinase Inhibitor Set

>  <Document Journal>  (318) 
nan

>  <Document Year>  (318) 
nan

>  <Active>  (318) 
0.0

>  <bits>  (318) 
<rdkit.DataStructs.cDataStructs.ExplicitBitVect object at 0x00000193F3410430>

>  <Group>  (318) 
G2

$$$$

     RDKit          2D

 27 30  0  0  0  0  0  0  0  0999 V2000
   -0.0000   -5.1073    0.0000 O   0  0  0  0  0  0  0  0  0  0  0  0
   -0.0000   -3.6073    0.0000 C   0  0  0  0  0  0  0  0  0  0  0  0
    1.2135   -2.7256    0.0000 N   0  0  0  0  0  0  0  0  0  0  0  0
    0.7500   -1.2990    0.0000 C   0  0  0  0  0  0  0  0  0  0  0  0
    1.5000    0.0000    0.0000 C   0  0  0  0  0  0  0  0  0  0  0  0
    0.7500    1.2990    0.0000 C   0  0  0  0  0  0  0  0  0  0  0  0
   -0.7500    1.2990    0.0000 C   0  0  0  0  0  0  0  0  0  0  0  0
   -1.5000    2.5981    0.0000 C   0  0  0  0  0  0  0  0  0  0  0  0
   -3.0000    2.5981    0.0000 O   0  0  0  0  0  0  0  0  0  0  0  0
   -0.7500    3.8971    0.0000 C   0  0  0  0  0  0  0  0  0  0  0  0
   -1.3601    5.2674    0.0000 C   0  0  0  0  0  0  0  0  0  0  0  0
   -0.2454    6.2711    0.0000 C   0  0  0  0  0  0  0  0  0  0  0  0
    1.0537    5.5211    0.0000 C   0  0  0  0  0  0  0  0  0  0  0  0
    0.7418    4.0539    0.0000 O   0  0  0  0  0  0  0  0  0  0  0  0
   -1.5000    0.0000    0.0000 C   0  0  0  0  0  0  0  0  0  0  0  0
   -0.7500   -1.2990    0.0000 C   0  0  0  0  0  0  0  0  0  0  0  0
   -1.2135   -2.7256    0.0000 C   0  0  0  0  0  0  0  0  0  0  0  0
   -2.6401   -3.1891    0.0000 C   0  0  0  0  0  0  0  0  0  0  0  0
   -2.9520   -4.6564    0.0000 C   0  0  0  0  0  0  0  0  0  0  0  0
   -4.3786   -5.1199    0.0000 C   0  0  0  0  0  0  0  0  0  0  0  0
   -4.6904   -6.5871    0.0000 C   0  0  0  0  0  0  0  0  0  0  0  0
   -6.1170   -7.0506    0.0000 Cl  0  0  0  0  0  0  0  0  0  0  0  0
   -3.5757   -7.5908    0.0000 C   0  0  0  0  0  0  0  0  0  0  0  0
   -3.8876   -9.0580    0.0000 O   0  0  0  0  0  0  0  0  0  0  0  0
   -2.1491   -7.1273    0.0000 C   0  0  0  0  0  0  0  0  0  0  0  0
   -1.0344   -8.1310    0.0000 Cl  0  0  0  0  0  0  0  0  0  0  0  0
   -1.8373   -5.6601    0.0000 C   0  0  0  0  0  0  0  0  0  0  0  0
  1  2  2  0
  2  3  1  0
  3  4  1  0
  4  5  2  0
  5  6  1  0
  6  7  2  0
  7  8  1  0
  8  9  2  0
  8 10  1  0
 10 11  2  0
 11 12  1  0
 12 13  2  0
 13 14  1  0
  7 15  1  0
 15 16  2  0
 16 17  1  0
 17 18  2  3
 18 19  1  0
 19 20  2  0
 20 21  1  0
 21 22  1  0
 21 23  2  0
 23 24  1  0
 23 25  1  0
 25 26  1  0
 25 27  2  0
 17  2  1  0
 27 19  1  0
 16  4  1  0
 14 10  1  0
M  END
>  <Compound_ID>  (319) 
CHEMBL1789963

>  <Molecule Name>  (319) 
GW406108X

>  <Molecular Weight>  (319) 
400.22

>  <AlogP>  (319) 
5.02

>  <Smiles>  (319) 
O=C1Nc2ccc(C(=O)c3ccco3)cc2C1=Cc1cc(Cl)c(O)c(Cl)c1

>  <Standard Type>  (319) 
Inhibition

>  <Standard Relation>  (319) 
'='

>  <Standard Units>  (319) 
%

>  <Standard Value>  (319) 
-0.93

>  <Assay ChEMBL ID>  (319) 
CHEMBL1962175

>  <Assay Description>  (319) 
GSK_PKIS: SYK mean inhibition at 1 uM [Nanosyn]

>  <BAO Format ID>  (319) 
BAO_0000357

>  <BAO Label>  (319) 
single protein format

>  <Assay Organism>  (319) 
None

>  <Target ChEMBL ID>  (319) 
CHEMBL2599

>  <Target Name>  (319) 
Tyrosine-protein kinase SYK

>  <Target Organism>  (319) 
Homo sapiens

>  <Target Type>  (319) 
SINGLE PROTEIN

>  <Document ChEMBL ID>  (319) 
CHEMBL1961873

>  <Source Description>  (319) 
GSK Published Kinase Inhibitor Set

>  <Document Journal>  (319) 
nan

>  <Document Year>  (319) 
nan

>  <Active>  (319) 
0.0

>  <bits>  (319) 
<rdkit.DataStructs.cDataStructs.ExplicitBitVect object at 0x00000193F34103C0>

>  <Group>  (319) 
G2

$$$$

     RDKit          2D

 24 26  0  0  0  0  0  0  0  0999 V2000
    7.5000   -7.7942    0.0000 C   0  0  0  0  0  0  0  0  0  0  0  0
    8.2500   -6.4952    0.0000 O   0  0  0  0  0  0  0  0  0  0  0  0
    7.5000   -5.1962    0.0000 C   0  0  0  0  0  0  0  0  0  0  0  0
    6.0000   -5.1962    0.0000 C   0  0  0  0  0  0  0  0  0  0  0  0
    5.2500   -3.8971    0.0000 C   0  0  0  0  0  0  0  0  0  0  0  0
    3.7500   -3.8971    0.0000 C   0  0  0  0  0  0  0  0  0  0  0  0
    3.0000   -2.5981    0.0000 N   0  0  0  0  0  0  0  0  0  0  0  0
    1.5000   -2.5981    0.0000 N   0  0  0  0  0  0  0  0  0  0  0  0
    0.7500   -1.2990    0.0000 C   0  0  0  0  0  0  0  0  0  0  0  0
    1.5000    0.0000    0.0000 N   0  0  0  0  0  0  0  0  0  0  0  0
    0.7500    1.2990    0.0000 C   0  0  0  0  0  0  0  0  0  0  0  0
   -0.7500    1.2990    0.0000 N   0  0  0  0  0  0  0  0  0  0  0  0
   -1.5000    0.0000    0.0000 C   0  0  0  0  0  0  0  0  0  0  0  0
   -0.7500   -1.2990    0.0000 C   0  0  0  0  0  0  0  0  0  0  0  0
   -1.7537   -2.4138    0.0000 C   0  0  0  0  0  0  0  0  0  0  0  0
   -3.1240   -1.8037    0.0000 N   0  0  0  0  0  0  0  0  0  0  0  0
   -2.9672   -0.3119    0.0000 N   0  0  0  0  0  0  0  0  0  0  0  0
   -4.0819    0.6918    0.0000 C   0  0  0  0  0  0  0  0  0  0  0  0
   -5.5085    0.2283    0.0000 C   0  0  0  0  0  0  0  0  0  0  0  0
   -3.7701    2.1590    0.0000 C   0  0  0  0  0  0  0  0  0  0  0  0
    6.0000   -2.5981    0.0000 C   0  0  0  0  0  0  0  0  0  0  0  0
    7.5000   -2.5981    0.0000 C   0  0  0  0  0  0  0  0  0  0  0  0
    8.2500   -3.8971    0.0000 C   0  0  0  0  0  0  0  0  0  0  0  0
    9.7500   -3.8971    0.0000 O   0  0  0  0  0  0  0  0  0  0  0  0
  1  2  1  0
  2  3  1  0
  3  4  2  0
  4  5  1  0
  5  6  1  0
  6  7  2  0
  7  8  1  0
  8  9  1  0
  9 10  2  0
 10 11  1  0
 11 12  2  0
 12 13  1  0
 13 14  2  0
 14 15  1  0
 15 16  2  0
 16 17  1  0
 17 18  1  0
 18 19  1  0
 18 20  1  0
  5 21  2  0
 21 22  1  0
 22 23  2  0
 23 24  1  0
 23  3  1  0
 14  9  1  0
 17 13  1  0
M  END
>  <Compound_ID>  (320) 
CHEMBL63728

>  <Molecule Name>  (320) 
GW644007X

>  <Molecular Weight>  (320) 
326.36

>  <AlogP>  (320) 
2.57

>  <Smiles>  (320) 
COc1cc(/C=N/Nc2ncnc3c2cnn3C(C)C)ccc1O

>  <Standard Type>  (320) 
Inhibition

>  <Standard Relation>  (320) 
'='

>  <Standard Units>  (320) 
%

>  <Standard Value>  (320) 
-1.05

>  <Assay ChEMBL ID>  (320) 
CHEMBL1962174

>  <Assay Description>  (320) 
GSK_PKIS: SYK mean inhibition at 0.1 uM [Nanosyn]

>  <BAO Format ID>  (320) 
BAO_0000357

>  <BAO Label>  (320) 
single protein format

>  <Assay Organism>  (320) 
None

>  <Target ChEMBL ID>  (320) 
CHEMBL2599

>  <Target Name>  (320) 
Tyrosine-protein kinase SYK

>  <Target Organism>  (320) 
Homo sapiens

>  <Target Type>  (320) 
SINGLE PROTEIN

>  <Document ChEMBL ID>  (320) 
CHEMBL1961873

>  <Source Description>  (320) 
GSK Published Kinase Inhibitor Set

>  <Document Journal>  (320) 
nan

>  <Document Year>  (320) 
nan

>  <Active>  (320) 
0.0

>  <bits>  (320) 
<rdkit.DataStructs.cDataStructs.ExplicitBitVect object at 0x00000193F3411AF0>

>  <Group>  (320) 
G2

$$$$

     RDKit          2D

 26 29  0  0  0  0  0  0  0  0999 V2000
    3.7500   -1.2990    0.0000 C   0  0  0  0  0  0  0  0  0  0  0  0
    3.0000    0.0000    0.0000 C   0  0  0  0  0  0  0  0  0  0  0  0
    3.7500    1.2990    0.0000 C   0  0  0  0  0  0  0  0  0  0  0  0
    1.5000    0.0000    0.0000 C   0  0  0  0  0  0  0  0  0  0  0  0
    0.7500   -1.2990    0.0000 C   0  0  0  0  0  0  0  0  0  0  0  0
   -0.7500   -1.2990    0.0000 C   0  0  0  0  0  0  0  0  0  0  0  0
   -1.5000    0.0000    0.0000 C   0  0  0  0  0  0  0  0  0  0  0  0
   -3.0000    0.0000    0.0000 C   0  0  0  0  0  0  0  0  0  0  0  0
   -3.7500    1.2990    0.0000 C   0  0  0  0  0  0  0  0  0  0  0  0
   -5.2500    1.2990    0.0000 C   0  0  0  0  0  0  0  0  0  0  0  0
   -6.0000    2.5981    0.0000 C   0  0  0  0  0  0  0  0  0  0  0  0
   -7.4918    2.7549    0.0000 C   0  0  0  0  0  0  0  0  0  0  0  0
   -7.8037    4.2221    0.0000 N   0  0  0  0  0  0  0  0  0  0  0  0
   -6.5046    4.9721    0.0000 N   0  0  0  0  0  0  0  0  0  0  0  0
   -5.3899    3.9684    0.0000 C   0  0  0  0  0  0  0  0  0  0  0  0
   -3.9227    4.2803    0.0000 C   0  0  0  0  0  0  0  0  0  0  0  0
   -2.9190    3.1655    0.0000 C   0  0  0  0  0  0  0  0  0  0  0  0
   -1.4518    3.4774    0.0000 C   0  0  0  0  0  0  0  0  0  0  0  0
   -0.9882    4.9040    0.0000 C   0  0  0  0  0  0  0  0  0  0  0  0
   -1.9919    6.0187    0.0000 C   0  0  0  0  0  0  0  0  0  0  0  0
   -3.4591    5.7068    0.0000 N   0  0  0  0  0  0  0  0  0  0  0  0
   -6.0000    0.0000    0.0000 C   0  0  0  0  0  0  0  0  0  0  0  0
   -5.2500   -1.2990    0.0000 C   0  0  0  0  0  0  0  0  0  0  0  0
   -3.7500   -1.2990    0.0000 N   0  0  0  0  0  0  0  0  0  0  0  0
   -0.7500    1.2990    0.0000 C   0  0  0  0  0  0  0  0  0  0  0  0
    0.7500    1.2990    0.0000 C   0  0  0  0  0  0  0  0  0  0  0  0
  1  2  1  0
  2  3  1  0
  2  4  1  0
  4  5  2  0
  5  6  1  0
  6  7  2  0
  7  8  1  0
  8  9  2  0
  9 10  1  0
 10 11  1  0
 11 12  2  0
 12 13  1  0
 13 14  1  0
 14 15  2  0
 15 16  1  0
 16 17  2  0
 17 18  1  0
 18 19  2  0
 19 20  1  0
 20 21  2  0
 10 22  2  0
 22 23  1  0
 23 24  2  0
  7 25  1  0
 25 26  2  0
 26  4  1  0
 24  8  1  0
 15 11  1  0
 21 16  1  0
M  END
>  <Compound_ID>  (321) 
CHEMBL206544

>  <Molecule Name>  (321) 
GW682841X

>  <Molecular Weight>  (321) 
340.43

>  <AlogP>  (321) 
5.32

>  <Smiles>  (321) 
CC(C)c1ccc(-c2cc(-c3c[nH]nc3-c3ccccn3)ccn2)cc1

>  <Standard Type>  (321) 
Inhibition

>  <Standard Relation>  (321) 
'='

>  <Standard Units>  (321) 
%

>  <Standard Value>  (321) 
1.09

>  <Assay ChEMBL ID>  (321) 
CHEMBL1962175

>  <Assay Description>  (321) 
GSK_PKIS: SYK mean inhibition at 1 uM [Nanosyn]

>  <BAO Format ID>  (321) 
BAO_0000357

>  <BAO Label>  (321) 
single protein format

>  <Assay Organism>  (321) 
None

>  <Target ChEMBL ID>  (321) 
CHEMBL2599

>  <Target Name>  (321) 
Tyrosine-protein kinase SYK

>  <Target Organism>  (321) 
Homo sapiens

>  <Target Type>  (321) 
SINGLE PROTEIN

>  <Document ChEMBL ID>  (321) 
CHEMBL1961873

>  <Source Description>  (321) 
GSK Published Kinase Inhibitor Set

>  <Document Journal>  (321) 
nan

>  <Document Year>  (321) 
nan

>  <Active>  (321) 
0.0

>  <bits>  (321) 
<rdkit.DataStructs.cDataStructs.ExplicitBitVect object at 0x00000193F34110E0>

>  <Group>  (321) 
G2

$$$$

     RDKit          2D

 29 33  0  0  0  0  0  0  0  0999 V2000
   -1.9091   14.2602    0.0000 N   0  0  0  0  0  0  0  0  0  0  0  0
   -2.7908   13.0467    0.0000 C   0  0  0  0  0  0  0  0  0  0  0  0
   -4.2826   13.2035    0.0000 O   0  0  0  0  0  0  0  0  0  0  0  0
   -2.1807   11.6764    0.0000 C   0  0  0  0  0  0  0  0  0  0  0  0
   -0.6889   11.5196    0.0000 C   0  0  0  0  0  0  0  0  0  0  0  0
   -0.0788   10.1493    0.0000 C   0  0  0  0  0  0  0  0  0  0  0  0
   -0.9605    8.9357    0.0000 C   0  0  0  0  0  0  0  0  0  0  0  0
   -0.3504    7.5654    0.0000 C   0  0  0  0  0  0  0  0  0  0  0  0
    1.1168    7.2536    0.0000 N   0  0  0  0  0  0  0  0  0  0  0  0
    1.2736    5.7618    0.0000 C   0  0  0  0  0  0  0  0  0  0  0  0
    2.5727    5.0118    0.0000 C   0  0  0  0  0  0  0  0  0  0  0  0
    2.5727    3.5118    0.0000 C   0  0  0  0  0  0  0  0  0  0  0  0
    3.8717    2.7618    0.0000 C   0  0  0  0  0  0  0  0  0  0  0  0
    5.1707    3.5118    0.0000 C   0  0  0  0  0  0  0  0  0  0  0  0
    5.1707    5.0118    0.0000 C   0  0  0  0  0  0  0  0  0  0  0  0
    3.8717    5.7618    0.0000 N   0  0  0  0  0  0  0  0  0  0  0  0
   -0.0967    5.1517    0.0000 C   0  0  0  0  0  0  0  0  0  0  0  0
   -0.4086    3.6844    0.0000 C   0  0  0  0  0  0  0  0  0  0  0  0
   -1.8351    3.2209    0.0000 C   0  0  0  0  0  0  0  0  0  0  0  0
   -2.1470    1.7537    0.0000 C   0  0  0  0  0  0  0  0  0  0  0  0
   -1.0323    0.7500    0.0000 C   0  0  0  0  0  0  0  0  0  0  0  0
    0.3943    1.2135    0.0000 C   0  0  0  0  0  0  0  0  0  0  0  0
    0.7062    2.6807    0.0000 C   0  0  0  0  0  0  0  0  0  0  0  0
    1.2760    0.0000    0.0000 O   0  0  0  0  0  0  0  0  0  0  0  0
    0.3943   -1.2135    0.0000 C   0  0  0  0  0  0  0  0  0  0  0  0
   -1.0323   -0.7500    0.0000 O   0  0  0  0  0  0  0  0  0  0  0  0
   -1.1004    6.2664    0.0000 N   0  0  0  0  0  0  0  0  0  0  0  0
   -2.4523    9.0925    0.0000 C   0  0  0  0  0  0  0  0  0  0  0  0
   -3.0624   10.4628    0.0000 C   0  0  0  0  0  0  0  0  0  0  0  0
  1  2  1  0
  2  3  2  0
  2  4  1  0
  4  5  2  0
  5  6  1  0
  6  7  2  0
  7  8  1  0
  8  9  2  0
  9 10  1  0
 10 11  1  0
 11 12  2  0
 12 13  1  0
 13 14  2  0
 14 15  1  0
 15 16  2  0
 10 17  2  0
 17 18  1  0
 18 19  2  0
 19 20  1  0
 20 21  2  0
 21 22  1  0
 22 23  2  0
 22 24  1  0
 24 25  1  0
 25 26  1  0
 17 27  1  0
  7 28  1  0
 28 29  2  0
 29  4  1  0
 27  8  1  0
 16 11  1  0
 23 18  1  0
 26 21  1  0
M  END
>  <Compound_ID>  (322) 
CHEMBL1909378

>  <Molecule Name>  (322) 
nan

>  <Molecular Weight>  (322) 
420.86

>  <AlogP>  (322) 
3.63

>  <Smiles>  (322) 
NC(=O)c1ccc(-c2nc(-c3ccccn3)c(-c3ccc4c(c3)OCO4)[nH]2)cc1

>  <Standard Type>  (322) 
Inhibition

>  <Standard Relation>  (322) 
'='

>  <Standard Units>  (322) 
%

>  <Standard Value>  (322) 
0.63

>  <Assay ChEMBL ID>  (322) 
CHEMBL1962174

>  <Assay Description>  (322) 
GSK_PKIS: SYK mean inhibition at 0.1 uM [Nanosyn]

>  <BAO Format ID>  (322) 
BAO_0000357

>  <BAO Label>  (322) 
single protein format

>  <Assay Organism>  (322) 
None

>  <Target ChEMBL ID>  (322) 
CHEMBL2599

>  <Target Name>  (322) 
Tyrosine-protein kinase SYK

>  <Target Organism>  (322) 
Homo sapiens

>  <Target Type>  (322) 
SINGLE PROTEIN

>  <Document ChEMBL ID>  (322) 
CHEMBL1961873

>  <Source Description>  (322) 
GSK Published Kinase Inhibitor Set

>  <Document Journal>  (322) 
nan

>  <Document Year>  (322) 
nan

>  <Active>  (322) 
0.0

>  <bits>  (322) 
<rdkit.DataStructs.cDataStructs.ExplicitBitVect object at 0x00000193F3411850>

>  <Group>  (322) 
G2

$$$$

     RDKit          2D

 24 26  0  0  0  0  0  0  0  0999 V2000
    4.5000    0.0000    0.0000 N   0  0  0  0  0  0  0  0  0  0  0  0
    3.0000    0.0000    0.0000 S   0  0  0  0  0  0  0  0  0  0  0  0
    3.0000   -1.5000    0.0000 O   0  0  0  0  0  0  0  0  0  0  0  0
    3.0000    1.5000    0.0000 O   0  0  0  0  0  0  0  0  0  0  0  0
    1.5000    0.0000    0.0000 C   0  0  0  0  0  0  0  0  0  0  0  0
    0.7500   -1.2990    0.0000 C   0  0  0  0  0  0  0  0  0  0  0  0
   -0.7500   -1.2990    0.0000 C   0  0  0  0  0  0  0  0  0  0  0  0
   -1.5000    0.0000    0.0000 C   0  0  0  0  0  0  0  0  0  0  0  0
   -3.0000    0.0000    0.0000 N   0  0  0  0  0  0  0  0  0  0  0  0
   -3.7500    1.2990    0.0000 C   0  0  0  0  0  0  0  0  0  0  0  0
   -5.2418    1.4558    0.0000 C   0  0  0  0  0  0  0  0  0  0  0  0
   -5.5537    2.9231    0.0000 C   0  0  0  0  0  0  0  0  0  0  0  0
   -6.9240    3.5332    0.0000 C   0  0  0  0  0  0  0  0  0  0  0  0
   -7.0808    5.0249    0.0000 C   0  0  0  0  0  0  0  0  0  0  0  0
   -8.4511    5.6350    0.0000 C   0  0  0  0  0  0  0  0  0  0  0  0
   -9.6646    4.7534    0.0000 C   0  0  0  0  0  0  0  0  0  0  0  0
  -11.0349    5.3635    0.0000 O   0  0  0  0  0  0  0  0  0  0  0  0
   -9.5078    3.2616    0.0000 C   0  0  0  0  0  0  0  0  0  0  0  0
  -10.7213    2.3799    0.0000 F   0  0  0  0  0  0  0  0  0  0  0  0
   -8.1375    2.6515    0.0000 C   0  0  0  0  0  0  0  0  0  0  0  0
   -4.2546    3.6731    0.0000 N   0  0  0  0  0  0  0  0  0  0  0  0
   -3.1399    2.6694    0.0000 N   0  0  0  0  0  0  0  0  0  0  0  0
   -0.7500    1.2990    0.0000 C   0  0  0  0  0  0  0  0  0  0  0  0
    0.7500    1.2990    0.0000 C   0  0  0  0  0  0  0  0  0  0  0  0
  1  2  1  0
  2  3  2  0
  2  4  2  0
  2  5  1  0
  5  6  2  0
  6  7  1  0
  7  8  2  0
  8  9  1  0
  9 10  1  0
 10 11  2  0
 11 12  1  0
 12 13  1  0
 13 14  2  0
 14 15  1  0
 15 16  2  0
 16 17  1  0
 16 18  1  0
 18 19  1  0
 18 20  2  0
 12 21  2  0
 21 22  1  0
  8 23  1  0
 23 24  2  0
 24  5  1  0
 22 10  1  0
 20 13  1  0
M  END
>  <Compound_ID>  (323) 
CHEMBL103115

>  <Molecule Name>  (323) 
GW831091X

>  <Molecular Weight>  (323) 
348.36

>  <AlogP>  (323) 
2.31

>  <Smiles>  (323) 
NS(=O)(=O)c1ccc(Nc2cc(-c3ccc(O)c(F)c3)n[nH]2)cc1

>  <Standard Type>  (323) 
Inhibition

>  <Standard Relation>  (323) 
'='

>  <Standard Units>  (323) 
%

>  <Standard Value>  (323) 
-1.99

>  <Assay ChEMBL ID>  (323) 
CHEMBL1962175

>  <Assay Description>  (323) 
GSK_PKIS: SYK mean inhibition at 1 uM [Nanosyn]

>  <BAO Format ID>  (323) 
BAO_0000357

>  <BAO Label>  (323) 
single protein format

>  <Assay Organism>  (323) 
None

>  <Target ChEMBL ID>  (323) 
CHEMBL2599

>  <Target Name>  (323) 
Tyrosine-protein kinase SYK

>  <Target Organism>  (323) 
Homo sapiens

>  <Target Type>  (323) 
SINGLE PROTEIN

>  <Document ChEMBL ID>  (323) 
CHEMBL1961873

>  <Source Description>  (323) 
GSK Published Kinase Inhibitor Set

>  <Document Journal>  (323) 
nan

>  <Document Year>  (323) 
nan

>  <Active>  (323) 
0.0

>  <bits>  (323) 
<rdkit.DataStructs.cDataStructs.ExplicitBitVect object at 0x00000193F34131B0>

>  <Group>  (323) 
G2

$$$$

     RDKit          2D

 37 41  0  0  0  0  0  0  0  0999 V2000
   -3.0000   -5.1962    0.0000 C   0  0  0  0  0  0  0  0  0  0  0  0
   -1.5000   -5.1962    0.0000 O   0  0  0  0  0  0  0  0  0  0  0  0
   -0.7500   -3.8971    0.0000 C   0  0  0  0  0  0  0  0  0  0  0  0
   -1.5000   -2.5981    0.0000 C   0  0  0  0  0  0  0  0  0  0  0  0
   -0.7500   -1.2990    0.0000 C   0  0  0  0  0  0  0  0  0  0  0  0
    0.7500   -1.2990    0.0000 C   0  0  0  0  0  0  0  0  0  0  0  0
    1.5000   -2.5981    0.0000 C   0  0  0  0  0  0  0  0  0  0  0  0
    0.7500   -3.8971    0.0000 C   0  0  0  0  0  0  0  0  0  0  0  0
    1.5000   -5.1962    0.0000 N   0  0  0  0  0  0  0  0  0  0  0  0
    0.7500   -6.4952    0.0000 C   0  0  0  0  0  0  0  0  0  0  0  0
   -0.7500   -6.4952    0.0000 N   0  0  0  0  0  0  0  0  0  0  0  0
   -1.5000   -7.7942    0.0000 C   0  0  0  0  0  0  0  0  0  0  0  0
   -3.0000   -7.7942    0.0000 N   0  0  0  0  0  0  0  0  0  0  0  0
   -3.7500   -9.0933    0.0000 C   0  0  0  0  0  0  0  0  0  0  0  0
   -3.1399  -10.4636    0.0000 C   0  0  0  0  0  0  0  0  0  0  0  0
   -4.2546  -11.4673    0.0000 C   0  0  0  0  0  0  0  0  0  0  0  0
   -5.5537  -10.7173    0.0000 S   0  0  0  0  0  0  0  0  0  0  0  0
   -5.2418   -9.2501    0.0000 C   0  0  0  0  0  0  0  0  0  0  0  0
   -6.2455   -8.1353    0.0000 C   0  0  0  0  0  0  0  0  0  0  0  0
   -7.7127   -8.4472    0.0000 N   0  0  0  0  0  0  0  0  0  0  0  0
   -5.7820   -6.7088    0.0000 O   0  0  0  0  0  0  0  0  0  0  0  0
   -0.7500   -9.0933    0.0000 C   0  0  0  0  0  0  0  0  0  0  0  0
   -1.2135  -10.5199    0.0000 C   0  0  0  0  0  0  0  0  0  0  0  0
   -0.0000  -11.4015    0.0000 C   0  0  0  0  0  0  0  0  0  0  0  0
    1.2135  -10.5199    0.0000 N   0  0  0  0  0  0  0  0  0  0  0  0
    0.7500   -9.0933    0.0000 C   0  0  0  0  0  0  0  0  0  0  0  0
    1.5000   -7.7942    0.0000 N   0  0  0  0  0  0  0  0  0  0  0  0
    1.5000    0.0000    0.0000 N   0  0  0  0  0  0  0  0  0  0  0  0
    3.0000    0.0000    0.0000 C   0  0  0  0  0  0  0  0  0  0  0  0
    3.7500   -1.2990    0.0000 O   0  0  0  0  0  0  0  0  0  0  0  0
    3.7500    1.2990    0.0000 C   0  0  0  0  0  0  0  0  0  0  0  0
    5.2500    1.2990    0.0000 N   0  0  0  0  0  0  0  0  0  0  0  0
    6.0000    2.5981    0.0000 C   0  0  0  0  0  0  0  0  0  0  0  0
    6.0000    0.0000    0.0000 C   0  0  0  0  0  0  0  0  0  0  0  0
    0.7500    1.2990    0.0000 C   0  0  0  0  0  0  0  0  0  0  0  0
   -0.7500    1.2990    0.0000 C   0  0  0  0  0  0  0  0  0  0  0  0
   -1.5000    0.0000    0.0000 C   0  0  0  0  0  0  0  0  0  0  0  0
  1  2  1  0
  2  3  1  0
  3  4  2  0
  4  5  1  0
  5  6  2  0
  6  7  1  0
  7  8  2  0
  8  9  1  0
  9 10  1  0
 10 11  2  0
 11 12  1  0
 12 13  1  0
 13 14  1  0
 14 15  1  0
 15 16  2  0
 16 17  1  0
 17 18  1  0
 18 19  1  0
 19 20  1  0
 19 21  2  0
 12 22  2  0
 22 23  1  0
 23 24  2  0
 24 25  1  0
 25 26  1  0
 26 27  2  0
  6 28  1  0
 28 29  1  0
 29 30  2  0
 29 31  1  0
 31 32  1  0
 32 33  1  0
 32 34  1  0
 28 35  1  0
 35 36  1  0
 36 37  1  0
  8  3  1  0
 27 10  1  0
 37  5  1  0
 18 14  2  0
 26 22  1  0
M  END
>  <Compound_ID>  (324) 
CHEMBL456252

>  <Molecule Name>  (324) 
GSK-2110236A

>  <Molecular Weight>  (324) 
520.62

>  <AlogP>  (324) 
3.45

>  <Smiles>  (324) 
COc1cc2c(cc1Nc1nc(Nc3ccsc3C(N)=O)c3cc[nH]c3n1)N(C(=O)CN(C)C)CCC2

>  <Standard Type>  (324) 
Inhibition

>  <Standard Relation>  (324) 
'='

>  <Standard Units>  (324) 
%

>  <Standard Value>  (324) 
11.24

>  <Assay ChEMBL ID>  (324) 
CHEMBL1962175

>  <Assay Description>  (324) 
GSK_PKIS: SYK mean inhibition at 1 uM [Nanosyn]

>  <BAO Format ID>  (324) 
BAO_0000357

>  <BAO Label>  (324) 
single protein format

>  <Assay Organism>  (324) 
None

>  <Target ChEMBL ID>  (324) 
CHEMBL2599

>  <Target Name>  (324) 
Tyrosine-protein kinase SYK

>  <Target Organism>  (324) 
Homo sapiens

>  <Target Type>  (324) 
SINGLE PROTEIN

>  <Document ChEMBL ID>  (324) 
CHEMBL1961873

>  <Source Description>  (324) 
GSK Published Kinase Inhibitor Set

>  <Document Journal>  (324) 
nan

>  <Document Year>  (324) 
nan

>  <Active>  (324) 
0.0

>  <bits>  (324) 
<rdkit.DataStructs.cDataStructs.ExplicitBitVect object at 0x00000193F3413140>

>  <Group>  (324) 
G2

$$$$

     RDKit          2D

 31 35  0  0  0  0  0  0  0  0999 V2000
   12.7500   -1.2990    0.0000 F   0  0  0  0  0  0  0  0  0  0  0  0
   12.0000   -2.5981    0.0000 C   0  0  0  0  0  0  0  0  0  0  0  0
   12.7500   -3.8971    0.0000 C   0  0  0  0  0  0  0  0  0  0  0  0
   12.0000   -5.1962    0.0000 C   0  0  0  0  0  0  0  0  0  0  0  0
   10.5000   -5.1962    0.0000 C   0  0  0  0  0  0  0  0  0  0  0  0
    9.7500   -3.8971    0.0000 C   0  0  0  0  0  0  0  0  0  0  0  0
    8.2500   -3.8971    0.0000 C   0  0  0  0  0  0  0  0  0  0  0  0
    7.5000   -2.5981    0.0000 O   0  0  0  0  0  0  0  0  0  0  0  0
    6.0000   -2.5981    0.0000 C   0  0  0  0  0  0  0  0  0  0  0  0
    5.2500   -1.2990    0.0000 C   0  0  0  0  0  0  0  0  0  0  0  0
    3.7500   -1.2990    0.0000 C   0  0  0  0  0  0  0  0  0  0  0  0
    3.0000   -2.5981    0.0000 C   0  0  0  0  0  0  0  0  0  0  0  0
    1.5000   -2.5981    0.0000 N   0  0  0  0  0  0  0  0  0  0  0  0
    0.7500   -1.2990    0.0000 C   0  0  0  0  0  0  0  0  0  0  0  0
    1.5000    0.0000    0.0000 N   0  0  0  0  0  0  0  0  0  0  0  0
    0.7500    1.2990    0.0000 C   0  0  0  0  0  0  0  0  0  0  0  0
   -0.7500    1.2990    0.0000 N   0  0  0  0  0  0  0  0  0  0  0  0
   -1.5000    0.0000    0.0000 C   0  0  0  0  0  0  0  0  0  0  0  0
   -2.9672   -0.3119    0.0000 C   0  0  0  0  0  0  0  0  0  0  0  0
   -3.1240   -1.8037    0.0000 C   0  0  0  0  0  0  0  0  0  0  0  0
   -4.4231   -2.5537    0.0000 C   0  0  0  0  0  0  0  0  0  0  0  0
   -4.5798   -4.0454    0.0000 C   0  0  0  0  0  0  0  0  0  0  0  0
   -6.0471   -4.3573    0.0000 C   0  0  0  0  0  0  0  0  0  0  0  0
   -6.7971   -3.0583    0.0000 C   0  0  0  0  0  0  0  0  0  0  0  0
   -5.7934   -1.9435    0.0000 N   0  0  0  0  0  0  0  0  0  0  0  0
   -1.7537   -2.4138    0.0000 S   0  0  0  0  0  0  0  0  0  0  0  0
   -0.7500   -1.2990    0.0000 C   0  0  0  0  0  0  0  0  0  0  0  0
    3.7500   -3.8971    0.0000 C   0  0  0  0  0  0  0  0  0  0  0  0
    5.2500   -3.8971    0.0000 C   0  0  0  0  0  0  0  0  0  0  0  0
    6.0000   -5.1962    0.0000 Cl  0  0  0  0  0  0  0  0  0  0  0  0
   10.5000   -2.5981    0.0000 C   0  0  0  0  0  0  0  0  0  0  0  0
  1  2  1  0
  2  3  2  0
  3  4  1  0
  4  5  2  0
  5  6  1  0
  6  7  1  0
  7  8  1  0
  8  9  1  0
  9 10  2  0
 10 11  1  0
 11 12  2  0
 12 13  1  0
 13 14  1  0
 14 15  2  0
 15 16  1  0
 16 17  2  0
 17 18  1  0
 18 19  1  0
 19 20  2  0
 20 21  1  0
 21 22  2  0
 22 23  1  0
 23 24  2  0
 24 25  1  0
 20 26  1  0
 26 27  1  0
 12 28  1  0
 28 29  2  0
 29 30  1  0
  6 31  2  0
 31  2  1  0
 29  9  1  0
 27 14  1  0
 27 18  2  0
 25 21  1  0
M  END
>  <Compound_ID>  (325) 
CHEMBL1909415

>  <Molecule Name>  (325) 
GW693881A

>  <Molecular Weight>  (325) 
487.39

>  <AlogP>  (325) 
6.80

>  <Smiles>  (325) 
Fc1cccc(COc2ccc(Nc3ncnc4cc(-c5ccc[nH]5)sc34)cc2Cl)c1

>  <Standard Type>  (325) 
Inhibition

>  <Standard Relation>  (325) 
'='

>  <Standard Units>  (325) 
%

>  <Standard Value>  (325) 
1.5

>  <Assay ChEMBL ID>  (325) 
CHEMBL1962174

>  <Assay Description>  (325) 
GSK_PKIS: SYK mean inhibition at 0.1 uM [Nanosyn]

>  <BAO Format ID>  (325) 
BAO_0000357

>  <BAO Label>  (325) 
single protein format

>  <Assay Organism>  (325) 
None

>  <Target ChEMBL ID>  (325) 
CHEMBL2599

>  <Target Name>  (325) 
Tyrosine-protein kinase SYK

>  <Target Organism>  (325) 
Homo sapiens

>  <Target Type>  (325) 
SINGLE PROTEIN

>  <Document ChEMBL ID>  (325) 
CHEMBL1961873

>  <Source Description>  (325) 
GSK Published Kinase Inhibitor Set

>  <Document Journal>  (325) 
nan

>  <Document Year>  (325) 
nan

>  <Active>  (325) 
0.0

>  <bits>  (325) 
<rdkit.DataStructs.cDataStructs.ExplicitBitVect object at 0x00000193F33E3140>

>  <Group>  (325) 
G2

$$$$

     RDKit          2D

 23 25  0  0  0  0  0  0  0  0999 V2000
   -3.7548   -2.1855    0.0000 C   0  0  0  0  0  0  0  0  0  0  0  0
   -2.6401   -3.1891    0.0000 C   0  0  0  0  0  0  0  0  0  0  0  0
   -2.9520   -4.6564    0.0000 N   0  0  0  0  0  0  0  0  0  0  0  0
   -4.3786   -5.1199    0.0000 C   0  0  0  0  0  0  0  0  0  0  0  0
   -5.4933   -4.1162    0.0000 C   0  0  0  0  0  0  0  0  0  0  0  0
   -6.9199   -4.5797    0.0000 C   0  0  0  0  0  0  0  0  0  0  0  0
   -7.2317   -6.0469    0.0000 C   0  0  0  0  0  0  0  0  0  0  0  0
   -8.6583   -6.5105    0.0000 S   0  0  0  0  0  0  0  0  0  0  0  0
  -10.0849   -6.9740    0.0000 N   0  0  0  0  0  0  0  0  0  0  0  0
   -9.1218   -5.0839    0.0000 O   0  0  0  0  0  0  0  0  0  0  0  0
   -8.1948   -7.9371    0.0000 O   0  0  0  0  0  0  0  0  0  0  0  0
   -6.1170   -7.0506    0.0000 C   0  0  0  0  0  0  0  0  0  0  0  0
   -4.6904   -6.5871    0.0000 C   0  0  0  0  0  0  0  0  0  0  0  0
   -1.2135   -2.7256    0.0000 C   0  0  0  0  0  0  0  0  0  0  0  0
   -0.0000   -3.6073    0.0000 C   0  0  0  0  0  0  0  0  0  0  0  0
    0.0000   -5.1073    0.0000 O   0  0  0  0  0  0  0  0  0  0  0  0
    1.2135   -2.7256    0.0000 N   0  0  0  0  0  0  0  0  0  0  0  0
    0.7500   -1.2990    0.0000 C   0  0  0  0  0  0  0  0  0  0  0  0
    1.5000    0.0000    0.0000 C   0  0  0  0  0  0  0  0  0  0  0  0
    0.7500    1.2990    0.0000 C   0  0  0  0  0  0  0  0  0  0  0  0
   -0.7500    1.2990    0.0000 C   0  0  0  0  0  0  0  0  0  0  0  0
   -1.5000    0.0000    0.0000 C   0  0  0  0  0  0  0  0  0  0  0  0
   -0.7500   -1.2990    0.0000 C   0  0  0  0  0  0  0  0  0  0  0  0
  1  2  1  0
  2  3  1  0
  3  4  1  0
  4  5  2  0
  5  6  1  0
  6  7  2  0
  7  8  1  0
  8  9  1  0
  8 10  2  0
  8 11  2  0
  7 12  1  0
 12 13  2  0
  2 14  2  0
 14 15  1  0
 15 16  2  0
 15 17  1  0
 17 18  1  0
 18 19  2  0
 19 20  1  0
 20 21  2  0
 21 22  1  0
 22 23  2  0
 13  4  1  0
 23 14  1  0
 23 18  1  0
M  END
>  <Compound_ID>  (326) 
CHEMBL405042

>  <Molecule Name>  (326) 
GW335962X

>  <Molecular Weight>  (326) 
329.38

>  <AlogP>  (326) 
2.13

>  <Smiles>  (326) 
C/C(Nc1ccc(S(N)(=O)=O)cc1)=C1/C(=O)Nc2ccccc21

>  <Standard Type>  (326) 
Inhibition

>  <Standard Relation>  (326) 
'='

>  <Standard Units>  (326) 
%

>  <Standard Value>  (326) 
0.6

>  <Assay ChEMBL ID>  (326) 
CHEMBL1962175

>  <Assay Description>  (326) 
GSK_PKIS: SYK mean inhibition at 1 uM [Nanosyn]

>  <BAO Format ID>  (326) 
BAO_0000357

>  <BAO Label>  (326) 
single protein format

>  <Assay Organism>  (326) 
None

>  <Target ChEMBL ID>  (326) 
CHEMBL2599

>  <Target Name>  (326) 
Tyrosine-protein kinase SYK

>  <Target Organism>  (326) 
Homo sapiens

>  <Target Type>  (326) 
SINGLE PROTEIN

>  <Document ChEMBL ID>  (326) 
CHEMBL1961873

>  <Source Description>  (326) 
GSK Published Kinase Inhibitor Set

>  <Document Journal>  (326) 
nan

>  <Document Year>  (326) 
nan

>  <Active>  (326) 
0.0

>  <bits>  (326) 
<rdkit.DataStructs.cDataStructs.ExplicitBitVect object at 0x00000193F33E3D80>

>  <Group>  (326) 
G2

$$$$

     RDKit          2D

 30 33  0  0  0  0  0  0  0  0999 V2000
   -3.7500    1.2990    0.0000 C   0  0  0  0  0  0  0  0  0  0  0  0
   -3.0000    0.0000    0.0000 O   0  0  0  0  0  0  0  0  0  0  0  0
   -3.7500   -1.2990    0.0000 C   0  0  0  0  0  0  0  0  0  0  0  0
   -3.0000   -2.5981    0.0000 C   0  0  0  0  0  0  0  0  0  0  0  0
   -3.7500   -3.8971    0.0000 C   0  0  0  0  0  0  0  0  0  0  0  0
   -3.0000   -5.1962    0.0000 N   0  0  0  0  0  0  0  0  0  0  0  0
   -1.5000   -5.1962    0.0000 C   0  0  0  0  0  0  0  0  0  0  0  0
   -0.7500   -6.4952    0.0000 N   0  0  0  0  0  0  0  0  0  0  0  0
    0.7500   -6.4952    0.0000 C   0  0  0  0  0  0  0  0  0  0  0  0
    1.5000   -5.1962    0.0000 C   0  0  0  0  0  0  0  0  0  0  0  0
    0.7500   -3.8971    0.0000 C   0  0  0  0  0  0  0  0  0  0  0  0
    1.5000   -2.5981    0.0000 N   0  0  0  0  0  0  0  0  0  0  0  0
    0.7500   -1.2990    0.0000 C   0  0  0  0  0  0  0  0  0  0  0  0
   -0.7500   -1.2990    0.0000 C   0  0  0  0  0  0  0  0  0  0  0  0
   -1.5000   -0.0000    0.0000 C   0  0  0  0  0  0  0  0  0  0  0  0
   -0.7500    1.2990    0.0000 C   0  0  0  0  0  0  0  0  0  0  0  0
   -1.2135    2.7256    0.0000 C   0  0  0  0  0  0  0  0  0  0  0  0
   -2.6401    3.1891    0.0000 C   0  0  0  0  0  0  0  0  0  0  0  0
   -0.0000    3.6073    0.0000 N   0  0  0  0  0  0  0  0  0  0  0  0
    1.2135    2.7256    0.0000 N   0  0  0  0  0  0  0  0  0  0  0  0
    0.7500    1.2990    0.0000 C   0  0  0  0  0  0  0  0  0  0  0  0
    1.5000   -0.0000    0.0000 C   0  0  0  0  0  0  0  0  0  0  0  0
   -0.7500   -3.8971    0.0000 N   0  0  0  0  0  0  0  0  0  0  0  0
   -5.2500   -3.8971    0.0000 C   0  0  0  0  0  0  0  0  0  0  0  0
   -6.0000   -2.5981    0.0000 C   0  0  0  0  0  0  0  0  0  0  0  0
   -7.5000   -2.5981    0.0000 O   0  0  0  0  0  0  0  0  0  0  0  0
   -8.2500   -1.2990    0.0000 C   0  0  0  0  0  0  0  0  0  0  0  0
   -5.2500   -1.2990    0.0000 C   0  0  0  0  0  0  0  0  0  0  0  0
   -6.0000    0.0000    0.0000 O   0  0  0  0  0  0  0  0  0  0  0  0
   -7.5000    0.0000    0.0000 C   0  0  0  0  0  0  0  0  0  0  0  0
  1  2  1  0
  2  3  1  0
  3  4  2  0
  4  5  1  0
  5  6  1  0
  6  7  1  0
  7  8  2  0
  8  9  1  0
  9 10  2  0
 10 11  1  0
 11 12  1  0
 12 13  1  0
 13 14  2  0
 14 15  1  0
 15 16  2  0
 16 17  1  0
 17 18  1  0
 17 19  2  0
 19 20  1  0
 20 21  1  0
 21 22  2  0
 11 23  2  0
  5 24  2  0
 24 25  1  0
 25 26  1  0
 26 27  1  0
 25 28  2  0
 28 29  1  0
 29 30  1  0
 28  3  1  0
 23  7  1  0
 22 13  1  0
 21 16  1  0
M  END
>  <Compound_ID>  (327) 
CHEMBL479079

>  <Molecule Name>  (327) 
GW612286X

>  <Molecular Weight>  (327) 
406.45

>  <AlogP>  (327) 
4.17

>  <Smiles>  (327) 
COc1cc(Nc2nccc(Nc3ccc4c(C)n[nH]c4c3)n2)cc(OC)c1OC

>  <Standard Type>  (327) 
Inhibition

>  <Standard Relation>  (327) 
'='

>  <Standard Units>  (327) 
%

>  <Standard Value>  (327) 
-1.75

>  <Assay ChEMBL ID>  (327) 
CHEMBL1962174

>  <Assay Description>  (327) 
GSK_PKIS: SYK mean inhibition at 0.1 uM [Nanosyn]

>  <BAO Format ID>  (327) 
BAO_0000357

>  <BAO Label>  (327) 
single protein format

>  <Assay Organism>  (327) 
None

>  <Target ChEMBL ID>  (327) 
CHEMBL2599

>  <Target Name>  (327) 
Tyrosine-protein kinase SYK

>  <Target Organism>  (327) 
Homo sapiens

>  <Target Type>  (327) 
SINGLE PROTEIN

>  <Document ChEMBL ID>  (327) 
CHEMBL1961873

>  <Source Description>  (327) 
GSK Published Kinase Inhibitor Set

>  <Document Journal>  (327) 
nan

>  <Document Year>  (327) 
nan

>  <Active>  (327) 
0.0

>  <bits>  (327) 
<rdkit.DataStructs.cDataStructs.ExplicitBitVect object at 0x00000193F33E3220>

>  <Group>  (327) 
G2

$$$$

     RDKit          2D

 38 42  0  0  0  0  0  0  0  0999 V2000
   -1.3632  -12.1594    0.0000 C   0  0  0  0  0  0  0  0  0  0  0  0
   -1.2064  -10.6676    0.0000 S   0  0  0  0  0  0  0  0  0  0  0  0
    0.2854  -10.8244    0.0000 O   0  0  0  0  0  0  0  0  0  0  0  0
   -2.6982  -10.5109    0.0000 O   0  0  0  0  0  0  0  0  0  0  0  0
   -1.0496   -9.1759    0.0000 C   0  0  0  0  0  0  0  0  0  0  0  0
    0.3207   -8.5658    0.0000 C   0  0  0  0  0  0  0  0  0  0  0  0
    0.4775   -7.0740    0.0000 N   0  0  0  0  0  0  0  0  0  0  0  0
    1.8478   -6.4639    0.0000 C   0  0  0  0  0  0  0  0  0  0  0  0
    2.0046   -4.9721    0.0000 C   0  0  0  0  0  0  0  0  0  0  0  0
    3.3037   -4.2221    0.0000 C   0  0  0  0  0  0  0  0  0  0  0  0
    2.9918   -2.7549    0.0000 C   0  0  0  0  0  0  0  0  0  0  0  0
    1.5000   -2.5981    0.0000 C   0  0  0  0  0  0  0  0  0  0  0  0
    0.7500   -1.2990    0.0000 C   0  0  0  0  0  0  0  0  0  0  0  0
    1.5000    0.0000    0.0000 C   0  0  0  0  0  0  0  0  0  0  0  0
    0.7500    1.2990    0.0000 C   0  0  0  0  0  0  0  0  0  0  0  0
   -0.7500    1.2990    0.0000 C   0  0  0  0  0  0  0  0  0  0  0  0
   -1.5000    2.5981    0.0000 N   0  0  0  0  0  0  0  0  0  0  0  0
   -3.0000    2.5981    0.0000 C   0  0  0  0  0  0  0  0  0  0  0  0
   -3.7500    1.2990    0.0000 N   0  0  0  0  0  0  0  0  0  0  0  0
   -3.0000    0.0000    0.0000 C   0  0  0  0  0  0  0  0  0  0  0  0
   -3.7500   -1.2990    0.0000 N   0  0  0  0  0  0  0  0  0  0  0  0
   -5.2500   -1.2990    0.0000 C   0  0  0  0  0  0  0  0  0  0  0  0
   -6.0000    0.0000    0.0000 C   0  0  0  0  0  0  0  0  0  0  0  0
   -7.5000    0.0000    0.0000 C   0  0  0  0  0  0  0  0  0  0  0  0
   -8.2500   -1.2990    0.0000 C   0  0  0  0  0  0  0  0  0  0  0  0
   -9.7500   -1.2990    0.0000 O   0  0  0  0  0  0  0  0  0  0  0  0
  -10.5000    0.0000    0.0000 C   0  0  0  0  0  0  0  0  0  0  0  0
  -12.0000    0.0000    0.0000 C   0  0  0  0  0  0  0  0  0  0  0  0
  -12.7500    1.2990    0.0000 C   0  0  0  0  0  0  0  0  0  0  0  0
  -14.2500    1.2990    0.0000 C   0  0  0  0  0  0  0  0  0  0  0  0
  -15.0000    0.0000    0.0000 C   0  0  0  0  0  0  0  0  0  0  0  0
  -14.2500   -1.2990    0.0000 C   0  0  0  0  0  0  0  0  0  0  0  0
  -12.7500   -1.2990    0.0000 C   0  0  0  0  0  0  0  0  0  0  0  0
   -7.5000   -2.5981    0.0000 C   0  0  0  0  0  0  0  0  0  0  0  0
   -6.0000   -2.5981    0.0000 C   0  0  0  0  0  0  0  0  0  0  0  0
   -1.5000    0.0000    0.0000 C   0  0  0  0  0  0  0  0  0  0  0  0
   -0.7500   -1.2990    0.0000 C   0  0  0  0  0  0  0  0  0  0  0  0
    0.8899   -3.9684    0.0000 O   0  0  0  0  0  0  0  0  0  0  0  0
  1  2  1  0
  2  3  2  0
  2  4  2  0
  2  5  1  0
  5  6  1  0
  6  7  1  0
  7  8  1  0
  8  9  1  0
  9 10  2  0
 10 11  1  0
 11 12  2  0
 12 13  1  0
 13 14  2  0
 14 15  1  0
 15 16  2  0
 16 17  1  0
 17 18  2  0
 18 19  1  0
 19 20  2  0
 20 21  1  0
 21 22  1  0
 22 23  2  0
 23 24  1  0
 24 25  2  0
 25 26  1  0
 26 27  1  0
 27 28  1  0
 28 29  2  0
 29 30  1  0
 30 31  2  0
 31 32  1  0
 32 33  2  0
 25 34  1  0
 34 35  2  0
 20 36  1  0
 36 37  2  0
 12 38  1  0
 38  9  1  0
 37 13  1  0
 36 16  1  0
 35 22  1  0
 33 28  1  0
M  END
>  <Compound_ID>  (328) 
CHEMBL1909385

>  <Molecule Name>  (328) 
GW458787A

>  <Molecular Weight>  (328) 
565.1

>  <AlogP>  (328) 
5.35

>  <Smiles>  (328) 
CS(=O)(=O)CCNCc1ccc(-c2ccc3ncnc(Nc4ccc(OCc5ccccc5)cc4)c3c2)o1

>  <Standard Type>  (328) 
Inhibition

>  <Standard Relation>  (328) 
'='

>  <Standard Units>  (328) 
%

>  <Standard Value>  (328) 
1.7

>  <Assay ChEMBL ID>  (328) 
CHEMBL1962174

>  <Assay Description>  (328) 
GSK_PKIS: SYK mean inhibition at 0.1 uM [Nanosyn]

>  <BAO Format ID>  (328) 
BAO_0000357

>  <BAO Label>  (328) 
single protein format

>  <Assay Organism>  (328) 
None

>  <Target ChEMBL ID>  (328) 
CHEMBL2599

>  <Target Name>  (328) 
Tyrosine-protein kinase SYK

>  <Target Organism>  (328) 
Homo sapiens

>  <Target Type>  (328) 
SINGLE PROTEIN

>  <Document ChEMBL ID>  (328) 
CHEMBL1961873

>  <Source Description>  (328) 
GSK Published Kinase Inhibitor Set

>  <Document Journal>  (328) 
nan

>  <Document Year>  (328) 
nan

>  <Active>  (328) 
0.0

>  <bits>  (328) 
<rdkit.DataStructs.cDataStructs.ExplicitBitVect object at 0x00000193F33E3F40>

>  <Group>  (328) 
G2

$$$$

     RDKit          2D

 31 34  0  0  0  0  0  0  0  0999 V2000
    0.7500   -3.8971    0.0000 C   0  0  0  0  0  0  0  0  0  0  0  0
    1.5000   -2.5981    0.0000 N   0  0  0  0  0  0  0  0  0  0  0  0
    3.0000   -2.5981    0.0000 C   0  0  0  0  0  0  0  0  0  0  0  0
    3.7500   -1.2990    0.0000 O   0  0  0  0  0  0  0  0  0  0  0  0
    3.7500   -3.8971    0.0000 C   0  0  0  0  0  0  0  0  0  0  0  0
    3.0000   -5.1962    0.0000 C   0  0  0  0  0  0  0  0  0  0  0  0
    3.7500   -6.4952    0.0000 C   0  0  0  0  0  0  0  0  0  0  0  0
    5.2500   -6.4952    0.0000 C   0  0  0  0  0  0  0  0  0  0  0  0
    6.0000   -5.1962    0.0000 C   0  0  0  0  0  0  0  0  0  0  0  0
    5.2500   -3.8971    0.0000 C   0  0  0  0  0  0  0  0  0  0  0  0
    0.7500   -1.2990    0.0000 C   0  0  0  0  0  0  0  0  0  0  0  0
    1.5000    0.0000    0.0000 C   0  0  0  0  0  0  0  0  0  0  0  0
    0.7500    1.2990    0.0000 C   0  0  0  0  0  0  0  0  0  0  0  0
   -0.7500    1.2990    0.0000 C   0  0  0  0  0  0  0  0  0  0  0  0
   -1.5000    0.0000    0.0000 C   0  0  0  0  0  0  0  0  0  0  0  0
   -0.7500   -1.2990    0.0000 C   0  0  0  0  0  0  0  0  0  0  0  0
   -2.9672    0.3119    0.0000 N   0  0  0  0  0  0  0  0  0  0  0  0
   -3.1240    1.8037    0.0000 C   0  0  0  0  0  0  0  0  0  0  0  0
   -4.4231    2.5537    0.0000 N   0  0  0  0  0  0  0  0  0  0  0  0
   -4.4231    4.0537    0.0000 C   0  0  0  0  0  0  0  0  0  0  0  0
   -3.1240    4.8037    0.0000 O   0  0  0  0  0  0  0  0  0  0  0  0
   -5.7221    4.8037    0.0000 C   0  0  0  0  0  0  0  0  0  0  0  0
   -7.0924    4.1935    0.0000 C   0  0  0  0  0  0  0  0  0  0  0  0
   -8.0961    5.3083    0.0000 C   0  0  0  0  0  0  0  0  0  0  0  0
   -7.3461    6.6073    0.0000 C   0  0  0  0  0  0  0  0  0  0  0  0
   -5.8789    6.2954    0.0000 S   0  0  0  0  0  0  0  0  0  0  0  0
   -1.7537    2.4138    0.0000 N   0  0  0  0  0  0  0  0  0  0  0  0
   -1.4418    3.8810    0.0000 C   0  0  0  0  0  0  0  0  0  0  0  0
   -0.0152    4.3445    0.0000 C   0  0  0  0  0  0  0  0  0  0  0  0
    0.2966    5.8117    0.0000 C   0  0  0  0  0  0  0  0  0  0  0  0
    1.7232    6.2752    0.0000 N   0  0  0  0  0  0  0  0  0  0  0  0
  1  2  1  0
  2  3  1  0
  3  4  2  0
  3  5  1  0
  5  6  1  0
  6  7  1  0
  7  8  1  0
  8  9  1  0
  9 10  1  0
  2 11  1  0
 11 12  2  0
 12 13  1  0
 13 14  2  0
 14 15  1  0
 15 16  2  0
 15 17  1  0
 17 18  2  0
 18 19  1  0
 19 20  1  0
 20 21  2  0
 20 22  1  0
 22 23  2  0
 23 24  1  0
 24 25  2  0
 25 26  1  0
 18 27  1  0
 27 28  1  0
 28 29  1  0
 29 30  1  0
 30 31  1  0
 10  5  1  0
 16 11  1  0
 26 22  1  0
 27 14  1  0
M  END
>  <Compound_ID>  (329) 
CHEMBL233338

>  <Molecule Name>  (329) 
nan

>  <Molecular Weight>  (329) 
439.59

>  <AlogP>  (329) 
4.24

>  <Smiles>  (329) 
CN(C(=O)C1CCCCC1)c1ccc2c(c1)nc(NC(=O)c1cccs1)n2CCCN

>  <Standard Type>  (329) 
Inhibition

>  <Standard Relation>  (329) 
'='

>  <Standard Units>  (329) 
%

>  <Standard Value>  (329) 
6.0

>  <Assay ChEMBL ID>  (329) 
CHEMBL896390

>  <Assay Description>  (329) 
Inhibition of SYK at 10 uM

>  <BAO Format ID>  (329) 
BAO_0000357

>  <BAO Label>  (329) 
single protein format

>  <Assay Organism>  (329) 
None

>  <Target ChEMBL ID>  (329) 
CHEMBL2599

>  <Target Name>  (329) 
Tyrosine-protein kinase SYK

>  <Target Organism>  (329) 
Homo sapiens

>  <Target Type>  (329) 
SINGLE PROTEIN

>  <Document ChEMBL ID>  (329) 
CHEMBL1148883

>  <Source Description>  (329) 
Scientific Literature

>  <Document Journal>  (329) 
Bioorg Med Chem Lett

>  <Document Year>  (329) 
2007.0

>  <Active>  (329) 
0.0

>  <bits>  (329) 
<rdkit.DataStructs.cDataStructs.ExplicitBitVect object at 0x00000193F33E2DC0>

>  <Group>  (329) 
G2

$$$$

     RDKit          2D

 32 35  0  0  0  0  0  0  0  0999 V2000
    8.2500  -11.6913    0.0000 C   0  0  0  0  0  0  0  0  0  0  0  0
    6.7500  -11.6913    0.0000 C   0  0  0  0  0  0  0  0  0  0  0  0
    6.0000  -10.3923    0.0000 S   0  0  0  0  0  0  0  0  0  0  0  0
    7.2990   -9.6423    0.0000 O   0  0  0  0  0  0  0  0  0  0  0  0
    4.7010  -11.1423    0.0000 O   0  0  0  0  0  0  0  0  0  0  0  0
    5.2500   -9.0933    0.0000 C   0  0  0  0  0  0  0  0  0  0  0  0
    3.7500   -9.0933    0.0000 C   0  0  0  0  0  0  0  0  0  0  0  0
    3.0000   -7.7942    0.0000 C   0  0  0  0  0  0  0  0  0  0  0  0
    3.7500   -6.4952    0.0000 C   0  0  0  0  0  0  0  0  0  0  0  0
    3.0000   -5.1962    0.0000 O   0  0  0  0  0  0  0  0  0  0  0  0
    1.5000   -5.1962    0.0000 C   0  0  0  0  0  0  0  0  0  0  0  0
    5.2500   -6.4952    0.0000 C   0  0  0  0  0  0  0  0  0  0  0  0
    6.0000   -5.1962    0.0000 N   0  0  0  0  0  0  0  0  0  0  0  0
    5.2500   -3.8971    0.0000 C   0  0  0  0  0  0  0  0  0  0  0  0
    6.0000   -2.5981    0.0000 N   0  0  0  0  0  0  0  0  0  0  0  0
    5.2500   -1.2990    0.0000 C   0  0  0  0  0  0  0  0  0  0  0  0
    3.7500   -1.2990    0.0000 C   0  0  0  0  0  0  0  0  0  0  0  0
    3.0000   -2.5981    0.0000 C   0  0  0  0  0  0  0  0  0  0  0  0
    1.5000   -2.5981    0.0000 N   0  0  0  0  0  0  0  0  0  0  0  0
    0.7500   -3.8971    0.0000 C   0  0  0  0  0  0  0  0  0  0  0  0
    0.7500   -1.2990    0.0000 C   0  0  0  0  0  0  0  0  0  0  0  0
    1.5000    0.0000    0.0000 C   0  0  0  0  0  0  0  0  0  0  0  0
    0.7500    1.2990    0.0000 C   0  0  0  0  0  0  0  0  0  0  0  0
   -0.7500    1.2990    0.0000 C   0  0  0  0  0  0  0  0  0  0  0  0
   -1.7537    2.4138    0.0000 C   0  0  0  0  0  0  0  0  0  0  0  0
   -1.4418    3.8810    0.0000 C   0  0  0  0  0  0  0  0  0  0  0  0
   -3.1240    1.8037    0.0000 N   0  0  0  0  0  0  0  0  0  0  0  0
   -2.9672    0.3119    0.0000 N   0  0  0  0  0  0  0  0  0  0  0  0
   -1.5000    0.0000    0.0000 C   0  0  0  0  0  0  0  0  0  0  0  0
   -0.7500   -1.2990    0.0000 C   0  0  0  0  0  0  0  0  0  0  0  0
    3.7500   -3.8971    0.0000 N   0  0  0  0  0  0  0  0  0  0  0  0
    6.0000   -7.7942    0.0000 C   0  0  0  0  0  0  0  0  0  0  0  0
  1  2  1  0
  2  3  1  0
  3  4  2  0
  3  5  2  0
  3  6  1  0
  6  7  2  0
  7  8  1  0
  8  9  2  0
  9 10  1  0
 10 11  1  0
  9 12  1  0
 12 13  1  0
 13 14  1  0
 14 15  2  0
 15 16  1  0
 16 17  2  0
 17 18  1  0
 18 19  1  0
 19 20  1  0
 19 21  1  0
 21 22  2  0
 22 23  1  0
 23 24  2  0
 24 25  1  0
 25 26  1  0
 25 27  2  0
 27 28  1  0
 28 29  1  0
 29 30  2  0
 18 31  2  0
 12 32  2  0
 32  6  1  0
 31 14  1  0
 30 21  1  0
 29 24  1  0
M  END
>  <Compound_ID>  (330) 
CHEMBL1909358

>  <Molecule Name>  (330) 
GW654652C

>  <Molecular Weight>  (330) 
489.0

>  <AlogP>  (330) 
3.98

>  <Smiles>  (330) 
CCS(=O)(=O)c1ccc(OC)c(Nc2nccc(N(C)c3ccc4c(C)n[nH]c4c3)n2)c1

>  <Standard Type>  (330) 
Inhibition

>  <Standard Relation>  (330) 
'='

>  <Standard Units>  (330) 
%

>  <Standard Value>  (330) 
-6.17

>  <Assay ChEMBL ID>  (330) 
CHEMBL1962175

>  <Assay Description>  (330) 
GSK_PKIS: SYK mean inhibition at 1 uM [Nanosyn]

>  <BAO Format ID>  (330) 
BAO_0000357

>  <BAO Label>  (330) 
single protein format

>  <Assay Organism>  (330) 
None

>  <Target ChEMBL ID>  (330) 
CHEMBL2599

>  <Target Name>  (330) 
Tyrosine-protein kinase SYK

>  <Target Organism>  (330) 
Homo sapiens

>  <Target Type>  (330) 
SINGLE PROTEIN

>  <Document ChEMBL ID>  (330) 
CHEMBL1961873

>  <Source Description>  (330) 
GSK Published Kinase Inhibitor Set

>  <Document Journal>  (330) 
nan

>  <Document Year>  (330) 
nan

>  <Active>  (330) 
0.0

>  <bits>  (330) 
<rdkit.DataStructs.cDataStructs.ExplicitBitVect object at 0x00000193F33E2F10>

>  <Group>  (330) 
G2

$$$$

     RDKit          2D

 36 39  0  0  0  0  0  0  0  0999 V2000
   -2.5981   -8.1073    0.0000 C   0  0  0  0  0  0  0  0  0  0  0  0
   -1.2990   -7.3573    0.0000 O   0  0  0  0  0  0  0  0  0  0  0  0
   -1.2990   -5.8573    0.0000 C   0  0  0  0  0  0  0  0  0  0  0  0
   -2.5981   -5.1073    0.0000 O   0  0  0  0  0  0  0  0  0  0  0  0
   -0.0000   -5.1073    0.0000 N   0  0  0  0  0  0  0  0  0  0  0  0
   -0.0000   -3.6073    0.0000 C   0  0  0  0  0  0  0  0  0  0  0  0
    1.2135   -2.7256    0.0000 N   0  0  0  0  0  0  0  0  0  0  0  0
    0.7500   -1.2990    0.0000 C   0  0  0  0  0  0  0  0  0  0  0  0
    1.5000    0.0000    0.0000 C   0  0  0  0  0  0  0  0  0  0  0  0
    0.7500    1.2990    0.0000 C   0  0  0  0  0  0  0  0  0  0  0  0
    1.5000    2.5981    0.0000 O   0  0  0  0  0  0  0  0  0  0  0  0
    3.0000    2.5981    0.0000 C   0  0  0  0  0  0  0  0  0  0  0  0
    3.7500    1.2990    0.0000 C   0  0  0  0  0  0  0  0  0  0  0  0
    5.2500    1.2990    0.0000 C   0  0  0  0  0  0  0  0  0  0  0  0
    6.0000    2.5981    0.0000 C   0  0  0  0  0  0  0  0  0  0  0  0
    5.2500    3.8971    0.0000 C   0  0  0  0  0  0  0  0  0  0  0  0
    6.0000    5.1962    0.0000 N   0  0  0  0  0  0  0  0  0  0  0  0
    7.5000    5.1962    0.0000 C   0  0  0  0  0  0  0  0  0  0  0  0
    8.2500    3.8971    0.0000 O   0  0  0  0  0  0  0  0  0  0  0  0
    8.2500    6.4952    0.0000 N   0  0  0  0  0  0  0  0  0  0  0  0
    9.7500    6.4952    0.0000 C   0  0  0  0  0  0  0  0  0  0  0  0
   10.5000    5.1962    0.0000 C   0  0  0  0  0  0  0  0  0  0  0  0
   12.0000    5.1962    0.0000 C   0  0  0  0  0  0  0  0  0  0  0  0
   12.7500    3.8971    0.0000 C   0  0  0  0  0  0  0  0  0  0  0  0
   13.5000    2.5981    0.0000 F   0  0  0  0  0  0  0  0  0  0  0  0
   11.4510    3.1471    0.0000 F   0  0  0  0  0  0  0  0  0  0  0  0
   14.0490    4.6471    0.0000 F   0  0  0  0  0  0  0  0  0  0  0  0
   12.7500    6.4952    0.0000 C   0  0  0  0  0  0  0  0  0  0  0  0
   12.0000    7.7942    0.0000 C   0  0  0  0  0  0  0  0  0  0  0  0
   10.5000    7.7942    0.0000 C   0  0  0  0  0  0  0  0  0  0  0  0
    9.7500    9.0933    0.0000 F   0  0  0  0  0  0  0  0  0  0  0  0
    3.7500    3.8971    0.0000 C   0  0  0  0  0  0  0  0  0  0  0  0
   -0.7500    1.2990    0.0000 C   0  0  0  0  0  0  0  0  0  0  0  0
   -1.5000    0.0000    0.0000 C   0  0  0  0  0  0  0  0  0  0  0  0
   -0.7500   -1.2990    0.0000 C   0  0  0  0  0  0  0  0  0  0  0  0
   -1.2135   -2.7256    0.0000 N   0  0  0  0  0  0  0  0  0  0  0  0
  1  2  1  0
  2  3  1  0
  3  4  2  0
  3  5  1  0
  5  6  1  0
  6  7  2  0
  7  8  1  0
  8  9  2  0
  9 10  1  0
 10 11  1  0
 11 12  1  0
 12 13  2  0
 13 14  1  0
 14 15  2  0
 15 16  1  0
 16 17  1  0
 17 18  1  0
 18 19  2  0
 18 20  1  0
 20 21  1  0
 21 22  2  0
 22 23  1  0
 23 24  1  0
 24 25  1  0
 24 26  1  0
 24 27  1  0
 23 28  2  0
 28 29  1  0
 29 30  2  0
 30 31  1  0
 16 32  2  0
 10 33  2  0
 33 34  1  0
 34 35  2  0
 35 36  1  0
 36  6  1  0
 35  8  1  0
 32 12  1  0
 30 21  1  0
M  END
>  <Compound_ID>  (331) 
CHEMBL1909366

>  <Molecule Name>  (331) 
GW659386A

>  <Molecular Weight>  (331) 
539.87

>  <AlogP>  (331) 
6.34

>  <Smiles>  (331) 
COC(=O)Nc1nc2cc(Oc3cccc(NC(=O)Nc4cc(C(F)(F)F)ccc4F)c3)ccc2[nH]1

>  <Standard Type>  (331) 
Inhibition

>  <Standard Relation>  (331) 
'='

>  <Standard Units>  (331) 
%

>  <Standard Value>  (331) 
0.17

>  <Assay ChEMBL ID>  (331) 
CHEMBL1962174

>  <Assay Description>  (331) 
GSK_PKIS: SYK mean inhibition at 0.1 uM [Nanosyn]

>  <BAO Format ID>  (331) 
BAO_0000357

>  <BAO Label>  (331) 
single protein format

>  <Assay Organism>  (331) 
None

>  <Target ChEMBL ID>  (331) 
CHEMBL2599

>  <Target Name>  (331) 
Tyrosine-protein kinase SYK

>  <Target Organism>  (331) 
Homo sapiens

>  <Target Type>  (331) 
SINGLE PROTEIN

>  <Document ChEMBL ID>  (331) 
CHEMBL1961873

>  <Source Description>  (331) 
GSK Published Kinase Inhibitor Set

>  <Document Journal>  (331) 
nan

>  <Document Year>  (331) 
nan

>  <Active>  (331) 
0.0

>  <bits>  (331) 
<rdkit.DataStructs.cDataStructs.ExplicitBitVect object at 0x00000193F33E3BC0>

>  <Group>  (331) 
G2

$$$$

     RDKit          2D

 34 38  0  0  0  0  0  0  0  0999 V2000
   -5.0487    4.2236    0.0000 F   0  0  0  0  0  0  0  0  0  0  0  0
   -5.3605    2.7564    0.0000 C   0  0  0  0  0  0  0  0  0  0  0  0
   -4.2458    1.7527    0.0000 C   0  0  0  0  0  0  0  0  0  0  0  0
   -4.5577    0.2855    0.0000 C   0  0  0  0  0  0  0  0  0  0  0  0
   -5.9843   -0.1781    0.0000 C   0  0  0  0  0  0  0  0  0  0  0  0
   -6.2961   -1.6453    0.0000 N   0  0  0  0  0  0  0  0  0  0  0  0
   -5.1814   -2.6490    0.0000 C   0  0  0  0  0  0  0  0  0  0  0  0
   -5.4933   -4.1162    0.0000 N   0  0  0  0  0  0  0  0  0  0  0  0
   -4.3786   -5.1199    0.0000 C   0  0  0  0  0  0  0  0  0  0  0  0
   -2.9520   -4.6564    0.0000 C   0  0  0  0  0  0  0  0  0  0  0  0
   -2.6401   -3.1891    0.0000 C   0  0  0  0  0  0  0  0  0  0  0  0
   -1.2135   -2.7256    0.0000 C   0  0  0  0  0  0  0  0  0  0  0  0
   -0.0000   -3.6073    0.0000 C   0  0  0  0  0  0  0  0  0  0  0  0
   -0.0000   -5.1073    0.0000 C   0  0  0  0  0  0  0  0  0  0  0  0
   -1.2990   -5.8573    0.0000 C   0  0  0  0  0  0  0  0  0  0  0  0
   -1.2990   -7.3573    0.0000 C   0  0  0  0  0  0  0  0  0  0  0  0
   -0.0000   -8.1073    0.0000 C   0  0  0  0  0  0  0  0  0  0  0  0
    0.0000   -9.6073    0.0000 C   0  0  0  0  0  0  0  0  0  0  0  0
    0.0000  -11.1073    0.0000 F   0  0  0  0  0  0  0  0  0  0  0  0
   -1.5000   -9.6073    0.0000 F   0  0  0  0  0  0  0  0  0  0  0  0
    1.5000   -9.6073    0.0000 F   0  0  0  0  0  0  0  0  0  0  0  0
    1.2990   -7.3573    0.0000 C   0  0  0  0  0  0  0  0  0  0  0  0
    1.2990   -5.8573    0.0000 C   0  0  0  0  0  0  0  0  0  0  0  0
    1.2135   -2.7256    0.0000 N   0  0  0  0  0  0  0  0  0  0  0  0
    0.7500   -1.2990    0.0000 N   0  0  0  0  0  0  0  0  0  0  0  0
    1.5000    0.0000    0.0000 N   0  0  0  0  0  0  0  0  0  0  0  0
    0.7500    1.2990    0.0000 C   0  0  0  0  0  0  0  0  0  0  0  0
   -0.7500    1.2990    0.0000 C   0  0  0  0  0  0  0  0  0  0  0  0
   -1.5000    0.0000    0.0000 C   0  0  0  0  0  0  0  0  0  0  0  0
   -0.7500   -1.2990    0.0000 C   0  0  0  0  0  0  0  0  0  0  0  0
   -3.7548   -2.1855    0.0000 N   0  0  0  0  0  0  0  0  0  0  0  0
   -7.0990    0.8256    0.0000 C   0  0  0  0  0  0  0  0  0  0  0  0
   -6.7871    2.2929    0.0000 C   0  0  0  0  0  0  0  0  0  0  0  0
   -7.9018    3.2966    0.0000 F   0  0  0  0  0  0  0  0  0  0  0  0
  1  2  1  0
  2  3  2  0
  3  4  1  0
  4  5  2  0
  5  6  1  0
  6  7  1  0
  7  8  2  0
  8  9  1  0
  9 10  2  0
 10 11  1  0
 11 12  1  0
 12 13  1  0
 13 14  1  0
 14 15  2  0
 15 16  1  0
 16 17  2  0
 17 18  1  0
 18 19  1  0
 18 20  1  0
 18 21  1  0
 17 22  1  0
 22 23  2  0
 13 24  2  0
 24 25  1  0
 25 26  1  0
 26 27  2  0
 27 28  1  0
 28 29  2  0
 29 30  1  0
 11 31  2  0
  5 32  1  0
 32 33  2  0
 33 34  1  0
 33  2  1  0
 31  7  1  0
 30 12  2  0
 23 14  1  0
 30 25  1  0
M  END
>  <Compound_ID>  (332) 
CHEMBL188784

>  <Molecule Name>  (332) 
GW828529X

>  <Molecular Weight>  (332) 
468.39

>  <AlogP>  (332) 
5.89

>  <Smiles>  (332) 
Fc1ccc(Nc2nccc(-c3c(-c4ccc(C(F)(F)F)cc4)nn4ncccc34)n2)cc1F

>  <Standard Type>  (332) 
Inhibition

>  <Standard Relation>  (332) 
'='

>  <Standard Units>  (332) 
%

>  <Standard Value>  (332) 
-0.68

>  <Assay ChEMBL ID>  (332) 
CHEMBL1962175

>  <Assay Description>  (332) 
GSK_PKIS: SYK mean inhibition at 1 uM [Nanosyn]

>  <BAO Format ID>  (332) 
BAO_0000357

>  <BAO Label>  (332) 
single protein format

>  <Assay Organism>  (332) 
None

>  <Target ChEMBL ID>  (332) 
CHEMBL2599

>  <Target Name>  (332) 
Tyrosine-protein kinase SYK

>  <Target Organism>  (332) 
Homo sapiens

>  <Target Type>  (332) 
SINGLE PROTEIN

>  <Document ChEMBL ID>  (332) 
CHEMBL1961873

>  <Source Description>  (332) 
GSK Published Kinase Inhibitor Set

>  <Document Journal>  (332) 
nan

>  <Document Year>  (332) 
nan

>  <Active>  (332) 
0.0

>  <bits>  (332) 
<rdkit.DataStructs.cDataStructs.ExplicitBitVect object at 0x00000193F33E3680>

>  <Group>  (332) 
G2

$$$$

     RDKit          2D

 45 49  0  0  0  0  0  0  0  0999 V2000
    3.0000    0.0000    0.0000 C   0  0  0  0  0  0  0  0  0  0  0  0
    1.5000    0.0000    0.0000 N   0  0  0  0  0  0  0  0  0  0  0  0
    0.7500   -1.2990    0.0000 C   0  0  0  0  0  0  0  0  0  0  0  0
   -0.7500   -1.2990    0.0000 C   0  0  0  0  0  0  0  0  0  0  0  0
   -1.5000    0.0000    0.0000 N   0  0  0  0  0  0  0  0  0  0  0  0
   -3.0000    0.0000    0.0000 C   0  0  0  0  0  0  0  0  0  0  0  0
   -3.7500   -1.2990    0.0000 O   0  0  0  0  0  0  0  0  0  0  0  0
   -3.7500    1.2990    0.0000 C   0  0  0  0  0  0  0  0  0  0  0  0
   -3.0000    2.5981    0.0000 C   0  0  0  0  0  0  0  0  0  0  0  0
   -3.7500    3.8971    0.0000 C   0  0  0  0  0  0  0  0  0  0  0  0
   -5.2500    3.8971    0.0000 C   0  0  0  0  0  0  0  0  0  0  0  0
   -6.0000    5.1962    0.0000 N   0  0  0  0  0  0  0  0  0  0  0  0
   -5.2500    6.4952    0.0000 C   0  0  0  0  0  0  0  0  0  0  0  0
   -3.7500    6.4952    0.0000 O   0  0  0  0  0  0  0  0  0  0  0  0
   -6.0000    7.7942    0.0000 N   0  0  0  0  0  0  0  0  0  0  0  0
   -5.2500    9.0933    0.0000 C   0  0  0  0  0  0  0  0  0  0  0  0
   -3.7500    9.0933    0.0000 C   0  0  0  0  0  0  0  0  0  0  0  0
   -3.0000   10.3923    0.0000 C   0  0  0  0  0  0  0  0  0  0  0  0
   -3.7500   11.6913    0.0000 C   0  0  0  0  0  0  0  0  0  0  0  0
   -3.0000   12.9904    0.0000 N   0  0  0  0  0  0  0  0  0  0  0  0
   -1.5000   12.9904    0.0000 C   0  0  0  0  0  0  0  0  0  0  0  0
   -3.7500   14.2894    0.0000 C   0  0  0  0  0  0  0  0  0  0  0  0
   -3.0000   15.5885    0.0000 C   0  0  0  0  0  0  0  0  0  0  0  0
   -3.7500   16.8875    0.0000 C   0  0  0  0  0  0  0  0  0  0  0  0
   -5.2500   16.8875    0.0000 N   0  0  0  0  0  0  0  0  0  0  0  0
   -6.0000   15.5885    0.0000 C   0  0  0  0  0  0  0  0  0  0  0  0
   -7.5000   15.5885    0.0000 N   0  0  0  0  0  0  0  0  0  0  0  0
   -8.2500   16.8875    0.0000 C   0  0  0  0  0  0  0  0  0  0  0  0
   -7.5000   18.1865    0.0000 C   0  0  0  0  0  0  0  0  0  0  0  0
   -8.2500   19.4856    0.0000 C   0  0  0  0  0  0  0  0  0  0  0  0
   -9.7500   19.4856    0.0000 C   0  0  0  0  0  0  0  0  0  0  0  0
  -10.5000   20.7846    0.0000 C   0  0  0  0  0  0  0  0  0  0  0  0
   -9.7500   22.0836    0.0000 S   0  0  0  0  0  0  0  0  0  0  0  0
   -9.0000   23.3827    0.0000 C   0  0  0  0  0  0  0  0  0  0  0  0
   -8.4510   21.3336    0.0000 O   0  0  0  0  0  0  0  0  0  0  0  0
  -11.0490   22.8336    0.0000 O   0  0  0  0  0  0  0  0  0  0  0  0
  -10.5000   18.1865    0.0000 C   0  0  0  0  0  0  0  0  0  0  0  0
   -9.7500   16.8875    0.0000 C   0  0  0  0  0  0  0  0  0  0  0  0
   -5.2500   14.2894    0.0000 N   0  0  0  0  0  0  0  0  0  0  0  0
   -5.2500   11.6913    0.0000 C   0  0  0  0  0  0  0  0  0  0  0  0
   -6.0000   10.3923    0.0000 C   0  0  0  0  0  0  0  0  0  0  0  0
   -6.0000    2.5981    0.0000 C   0  0  0  0  0  0  0  0  0  0  0  0
   -5.2500    1.2990    0.0000 C   0  0  0  0  0  0  0  0  0  0  0  0
   -0.7500    1.2990    0.0000 C   0  0  0  0  0  0  0  0  0  0  0  0
    0.7500    1.2990    0.0000 C   0  0  0  0  0  0  0  0  0  0  0  0
  1  2  1  0
  2  3  1  0
  3  4  1  0
  4  5  1  0
  5  6  1  0
  6  7  2  0
  6  8  1  0
  8  9  2  0
  9 10  1  0
 10 11  2  0
 11 12  1  0
 12 13  1  0
 13 14  2  0
 13 15  1  0
 15 16  1  0
 16 17  2  0
 17 18  1  0
 18 19  2  0
 19 20  1  0
 20 21  1  0
 20 22  1  0
 22 23  2  0
 23 24  1  0
 24 25  2  0
 25 26  1  0
 26 27  1  0
 27 28  1  0
 28 29  2  0
 29 30  1  0
 30 31  2  0
 31 32  1  0
 32 33  1  0
 33 34  1  0
 33 35  2  0
 33 36  2  0
 31 37  1  0
 37 38  2  0
 26 39  2  0
 19 40  1  0
 40 41  2  0
 11 42  1  0
 42 43  2  0
  5 44  1  0
 44 45  1  0
 45  2  1  0
 43  8  1  0
 41 16  1  0
 39 22  1  0
 38 28  1  0
M  END
>  <Compound_ID>  (333) 
CHEMBL1909360

>  <Molecule Name>  (333) 
GW830263A

>  <Molecular Weight>  (333) 
665.22

>  <AlogP>  (333) 
4.56

>  <Smiles>  (333) 
CN1CCN(C(=O)c2ccc(NC(=O)Nc3ccc(N(C)c4ccnc(Nc5ccc(CS(C)(=O)=O)cc5)n4)cc3)cc2)CC1

>  <Standard Type>  (333) 
Inhibition

>  <Standard Relation>  (333) 
'='

>  <Standard Units>  (333) 
%

>  <Standard Value>  (333) 
-2.49

>  <Assay ChEMBL ID>  (333) 
CHEMBL1962175

>  <Assay Description>  (333) 
GSK_PKIS: SYK mean inhibition at 1 uM [Nanosyn]

>  <BAO Format ID>  (333) 
BAO_0000357

>  <BAO Label>  (333) 
single protein format

>  <Assay Organism>  (333) 
None

>  <Target ChEMBL ID>  (333) 
CHEMBL2599

>  <Target Name>  (333) 
Tyrosine-protein kinase SYK

>  <Target Organism>  (333) 
Homo sapiens

>  <Target Type>  (333) 
SINGLE PROTEIN

>  <Document ChEMBL ID>  (333) 
CHEMBL1961873

>  <Source Description>  (333) 
GSK Published Kinase Inhibitor Set

>  <Document Journal>  (333) 
nan

>  <Document Year>  (333) 
nan

>  <Active>  (333) 
0.0

>  <bits>  (333) 
<rdkit.DataStructs.cDataStructs.ExplicitBitVect object at 0x00000193F33E33E0>

>  <Group>  (333) 
G2

$$$$

     RDKit          2D

 30 33  0  0  0  0  0  0  0  0999 V2000
    1.8478   -6.4639    0.0000 C   0  0  0  0  0  0  0  0  0  0  0  0
    2.0046   -4.9721    0.0000 C   0  0  0  0  0  0  0  0  0  0  0  0
    3.3037   -4.2221    0.0000 N   0  0  0  0  0  0  0  0  0  0  0  0
    2.9918   -2.7549    0.0000 N   0  0  0  0  0  0  0  0  0  0  0  0
    1.5000   -2.5981    0.0000 C   0  0  0  0  0  0  0  0  0  0  0  0
    0.7500   -1.2990    0.0000 C   0  0  0  0  0  0  0  0  0  0  0  0
    1.5000    0.0000    0.0000 C   0  0  0  0  0  0  0  0  0  0  0  0
    0.7500    1.2990    0.0000 C   0  0  0  0  0  0  0  0  0  0  0  0
   -0.7500    1.2990    0.0000 C   0  0  0  0  0  0  0  0  0  0  0  0
   -1.5000    2.5981    0.0000 C   0  0  0  0  0  0  0  0  0  0  0  0
   -1.5000    0.0000    0.0000 C   0  0  0  0  0  0  0  0  0  0  0  0
   -3.0000    0.0000    0.0000 C   0  0  0  0  0  0  0  0  0  0  0  0
   -3.7500    1.2990    0.0000 C   0  0  0  0  0  0  0  0  0  0  0  0
   -5.2500    1.2990    0.0000 C   0  0  0  0  0  0  0  0  0  0  0  0
   -6.0000    0.0000    0.0000 C   0  0  0  0  0  0  0  0  0  0  0  0
   -7.5000    0.0000    0.0000 C   0  0  0  0  0  0  0  0  0  0  0  0
   -8.2500   -1.2990    0.0000 O   0  0  0  0  0  0  0  0  0  0  0  0
   -8.2500    1.2990    0.0000 N   0  0  0  0  0  0  0  0  0  0  0  0
   -9.7500    1.2990    0.0000 C   0  0  0  0  0  0  0  0  0  0  0  0
  -10.5000    2.5981    0.0000 C   0  0  0  0  0  0  0  0  0  0  0  0
  -12.0000    2.5981    0.0000 C   0  0  0  0  0  0  0  0  0  0  0  0
  -12.7500    1.2990    0.0000 C   0  0  0  0  0  0  0  0  0  0  0  0
  -12.0000    0.0000    0.0000 C   0  0  0  0  0  0  0  0  0  0  0  0
  -12.7500   -1.2990    0.0000 C   0  0  0  0  0  0  0  0  0  0  0  0
  -13.5000   -2.5981    0.0000 N   0  0  0  0  0  0  0  0  0  0  0  0
  -10.5000    0.0000    0.0000 C   0  0  0  0  0  0  0  0  0  0  0  0
   -5.2500   -1.2990    0.0000 C   0  0  0  0  0  0  0  0  0  0  0  0
   -3.7500   -1.2990    0.0000 C   0  0  0  0  0  0  0  0  0  0  0  0
   -0.7500   -1.2990    0.0000 C   0  0  0  0  0  0  0  0  0  0  0  0
    0.8899   -3.9684    0.0000 O   0  0  0  0  0  0  0  0  0  0  0  0
  1  2  1  0
  2  3  2  0
  3  4  1  0
  4  5  2  0
  5  6  1  0
  6  7  2  0
  7  8  1  0
  8  9  2  0
  9 10  1  0
  9 11  1  0
 11 12  1  0
 12 13  2  0
 13 14  1  0
 14 15  2  0
 15 16  1  0
 16 17  2  0
 16 18  1  0
 18 19  1  0
 19 20  2  0
 20 21  1  0
 21 22  2  0
 22 23  1  0
 23 24  1  0
 24 25  3  0
 23 26  2  0
 15 27  1  0
 27 28  2  0
 11 29  2  0
  5 30  1  0
 30  2  1  0
 29  6  1  0
 28 12  1  0
 26 19  1  0
M  END
>  <Compound_ID>  (334) 
CHEMBL270164

>  <Molecule Name>  (334) 
GW607117X

>  <Molecular Weight>  (334) 
394.43

>  <AlogP>  (334) 
5.14

>  <Smiles>  (334) 
Cc1nnc(-c2ccc(C)c(-c3ccc(C(=O)Nc4cccc(C#N)c4)cc3)c2)o1

>  <Standard Type>  (334) 
Inhibition

>  <Standard Relation>  (334) 
'='

>  <Standard Units>  (334) 
%

>  <Standard Value>  (334) 
-0.57

>  <Assay ChEMBL ID>  (334) 
CHEMBL1962175

>  <Assay Description>  (334) 
GSK_PKIS: SYK mean inhibition at 1 uM [Nanosyn]

>  <BAO Format ID>  (334) 
BAO_0000357

>  <BAO Label>  (334) 
single protein format

>  <Assay Organism>  (334) 
None

>  <Target ChEMBL ID>  (334) 
CHEMBL2599

>  <Target Name>  (334) 
Tyrosine-protein kinase SYK

>  <Target Organism>  (334) 
Homo sapiens

>  <Target Type>  (334) 
SINGLE PROTEIN

>  <Document ChEMBL ID>  (334) 
CHEMBL1961873

>  <Source Description>  (334) 
GSK Published Kinase Inhibitor Set

>  <Document Journal>  (334) 
nan

>  <Document Year>  (334) 
nan

>  <Active>  (334) 
0.0

>  <bits>  (334) 
<rdkit.DataStructs.cDataStructs.ExplicitBitVect object at 0x00000193F33E38B0>

>  <Group>  (334) 
G2

$$$$

     RDKit          2D

 24 27  0  0  0  0  0  0  0  0999 V2000
   -2.5546    4.4425    0.0000 C   0  0  0  0  0  0  0  0  0  0  0  0
   -3.8536    3.6925    0.0000 O   0  0  0  0  0  0  0  0  0  0  0  0
   -3.8536    2.1925    0.0000 C   0  0  0  0  0  0  0  0  0  0  0  0
   -2.5546    1.4425    0.0000 C   0  0  0  0  0  0  0  0  0  0  0  0
   -2.5546   -0.0575    0.0000 C   0  0  0  0  0  0  0  0  0  0  0  0
   -3.8536   -0.8075    0.0000 C   0  0  0  0  0  0  0  0  0  0  0  0
   -3.8536   -2.3075    0.0000 C   0  0  0  0  0  0  0  0  0  0  0  0
   -2.6401   -3.1891    0.0000 C   0  0  0  0  0  0  0  0  0  0  0  0
   -1.2135   -2.7256    0.0000 N   0  0  0  0  0  0  0  0  0  0  0  0
   -0.0000   -3.6073    0.0000 C   0  0  0  0  0  0  0  0  0  0  0  0
    1.2135   -2.7256    0.0000 C   0  0  0  0  0  0  0  0  0  0  0  0
    0.7500   -1.2990    0.0000 C   0  0  0  0  0  0  0  0  0  0  0  0
    1.5000    0.0000    0.0000 C   0  0  0  0  0  0  0  0  0  0  0  0
    0.7500    1.2990    0.0000 C   0  0  0  0  0  0  0  0  0  0  0  0
   -0.7500    1.2990    0.0000 C   0  0  0  0  0  0  0  0  0  0  0  0
   -1.5000    0.0000    0.0000 C   0  0  0  0  0  0  0  0  0  0  0  0
   -0.7500   -1.2990    0.0000 C   0  0  0  0  0  0  0  0  0  0  0  0
   -3.1036   -4.6157    0.0000 C   0  0  0  0  0  0  0  0  0  0  0  0
   -2.2220   -5.8293    0.0000 O   0  0  0  0  0  0  0  0  0  0  0  0
   -4.6036   -4.6157    0.0000 N   0  0  0  0  0  0  0  0  0  0  0  0
   -5.0672   -3.1891    0.0000 C   0  0  0  0  0  0  0  0  0  0  0  0
   -6.4937   -2.7256    0.0000 O   0  0  0  0  0  0  0  0  0  0  0  0
   -5.1527   -0.0575    0.0000 C   0  0  0  0  0  0  0  0  0  0  0  0
   -5.1527    1.4425    0.0000 C   0  0  0  0  0  0  0  0  0  0  0  0
  1  2  1  0
  2  3  1  0
  3  4  2  0
  4  5  1  0
  5  6  2  0
  6  7  1  0
  7  8  2  0
  8  9  1  0
  9 10  1  0
 10 11  1  0
 11 12  1  0
 12 13  2  0
 13 14  1  0
 14 15  2  0
 15 16  1  0
 16 17  2  0
  8 18  1  0
 18 19  2  0
 18 20  1  0
 20 21  1  0
 21 22  2  0
  6 23  1  0
 23 24  2  0
 24  3  1  0
 21  7  1  0
 17  9  1  0
 17 12  1  0
M  END
>  <Compound_ID>  (335) 
CHEMBL347580

>  <Molecule Name>  (335) 
nan

>  <Molecular Weight>  (335) 
320.35

>  <AlogP>  (335) 
2.13

>  <Smiles>  (335) 
COc1ccc(C2=C(N3CCc4ccccc43)C(=O)NC2=O)cc1

>  <Standard Type>  (335) 
Inhibition

>  <Standard Relation>  (335) 
'='

>  <Standard Units>  (335) 
%

>  <Standard Value>  (335) 
2.15

>  <Assay ChEMBL ID>  (335) 
CHEMBL1962175

>  <Assay Description>  (335) 
GSK_PKIS: SYK mean inhibition at 1 uM [Nanosyn]

>  <BAO Format ID>  (335) 
BAO_0000357

>  <BAO Label>  (335) 
single protein format

>  <Assay Organism>  (335) 
None

>  <Target ChEMBL ID>  (335) 
CHEMBL2599

>  <Target Name>  (335) 
Tyrosine-protein kinase SYK

>  <Target Organism>  (335) 
Homo sapiens

>  <Target Type>  (335) 
SINGLE PROTEIN

>  <Document ChEMBL ID>  (335) 
CHEMBL1961873

>  <Source Description>  (335) 
GSK Published Kinase Inhibitor Set

>  <Document Journal>  (335) 
nan

>  <Document Year>  (335) 
nan

>  <Active>  (335) 
0.0

>  <bits>  (335) 
<rdkit.DataStructs.cDataStructs.ExplicitBitVect object at 0x00000193F33E3530>

>  <Group>  (335) 
G2

$$$$

     RDKit          2D

 26 28  0  0  0  0  0  0  0  0999 V2000
    1.8478   -6.4639    0.0000 O   0  0  0  0  0  0  0  0  0  0  0  0
    2.0046   -4.9721    0.0000 C   0  0  0  0  0  0  0  0  0  0  0  0
    3.3037   -4.2221    0.0000 N   0  0  0  0  0  0  0  0  0  0  0  0
    2.9918   -2.7549    0.0000 C   0  0  0  0  0  0  0  0  0  0  0  0
    3.9955   -1.6402    0.0000 O   0  0  0  0  0  0  0  0  0  0  0  0
    1.5000   -2.5981    0.0000 C   0  0  0  0  0  0  0  0  0  0  0  0
    0.7500   -1.2990    0.0000 C   0  0  0  0  0  0  0  0  0  0  0  0
    1.5000    0.0000    0.0000 C   0  0  0  0  0  0  0  0  0  0  0  0
    0.7500    1.2990    0.0000 C   0  0  0  0  0  0  0  0  0  0  0  0
   -0.7500    1.2990    0.0000 C   0  0  0  0  0  0  0  0  0  0  0  0
   -1.5000    0.0000    0.0000 C   0  0  0  0  0  0  0  0  0  0  0  0
   -3.0000    0.0000    0.0000 N   0  0  0  0  0  4  0  0  0  0  0  0
   -3.7500   -1.2990    0.0000 O   0  0  0  0  0  0  0  0  0  0  0  0
   -3.7500    1.2990    0.0000 O   0  0  0  0  0  1  0  0  0  0  0  0
   -0.7500   -1.2990    0.0000 C   0  0  0  0  0  0  0  0  0  0  0  0
    0.8899   -3.9684    0.0000 C   0  0  0  0  0  0  0  0  0  0  0  0
   -0.5773   -4.2803    0.0000 N   0  0  0  0  0  0  0  0  0  0  0  0
   -1.0409   -5.7068    0.0000 C   0  0  0  0  0  0  0  0  0  0  0  0
   -2.5081   -6.0187    0.0000 C   0  0  0  0  0  0  0  0  0  0  0  0
   -2.9716   -7.4453    0.0000 C   0  0  0  0  0  0  0  0  0  0  0  0
   -4.4388   -7.7572    0.0000 Cl  0  0  0  0  0  0  0  0  0  0  0  0
   -1.9679   -8.5600    0.0000 C   0  0  0  0  0  0  0  0  0  0  0  0
   -2.4314   -9.9866    0.0000 O   0  0  0  0  0  0  0  0  0  0  0  0
   -0.5007   -8.2481    0.0000 C   0  0  0  0  0  0  0  0  0  0  0  0
    0.5030   -9.3629    0.0000 Cl  0  0  0  0  0  0  0  0  0  0  0  0
   -0.0372   -6.8216    0.0000 C   0  0  0  0  0  0  0  0  0  0  0  0
  1  2  2  0
  2  3  1  0
  3  4  1  0
  4  5  2  0
  4  6  1  0
  6  7  1  0
  7  8  2  0
  8  9  1  0
  9 10  2  0
 10 11  1  0
 11 12  1  0
 12 13  2  0
 12 14  1  0
 11 15  2  0
  6 16  2  0
 16 17  1  0
 17 18  1  0
 18 19  2  0
 19 20  1  0
 20 21  1  0
 20 22  2  0
 22 23  1  0
 22 24  1  0
 24 25  1  0
 24 26  2  0
 16  2  1  0
 26 18  1  0
 15  7  1  0
M  CHG  2  12   1  14  -1
M  END
>  <Compound_ID>  (336) 
CHEMBL352222

>  <Molecule Name>  (336) 
nan

>  <Molecular Weight>  (336) 
394.17

>  <AlogP>  (336) 
3.09

>  <Smiles>  (336) 
O=C1NC(=O)C(c2cccc([N+](=O)[O-])c2)=C1Nc1cc(Cl)c(O)c(Cl)c1

>  <Standard Type>  (336) 
Inhibition

>  <Standard Relation>  (336) 
'='

>  <Standard Units>  (336) 
%

>  <Standard Value>  (336) 
-2.48

>  <Assay ChEMBL ID>  (336) 
CHEMBL1962175

>  <Assay Description>  (336) 
GSK_PKIS: SYK mean inhibition at 1 uM [Nanosyn]

>  <BAO Format ID>  (336) 
BAO_0000357

>  <BAO Label>  (336) 
single protein format

>  <Assay Organism>  (336) 
None

>  <Target ChEMBL ID>  (336) 
CHEMBL2599

>  <Target Name>  (336) 
Tyrosine-protein kinase SYK

>  <Target Organism>  (336) 
Homo sapiens

>  <Target Type>  (336) 
SINGLE PROTEIN

>  <Document ChEMBL ID>  (336) 
CHEMBL1961873

>  <Source Description>  (336) 
GSK Published Kinase Inhibitor Set

>  <Document Journal>  (336) 
nan

>  <Document Year>  (336) 
nan

>  <Active>  (336) 
0.0

>  <bits>  (336) 
<rdkit.DataStructs.cDataStructs.ExplicitBitVect object at 0x00000193F33E3920>

>  <Group>  (336) 
G2

$$$$

     RDKit          2D

 39 44  0  0  0  0  0  0  0  0999 V2000
   -0.4702  -13.1562    0.0000 O   0  0  0  0  0  0  0  0  0  0  0  0
    1.0216  -12.9994    0.0000 C   0  0  0  0  0  0  0  0  0  0  0  0
    1.6317  -11.6291    0.0000 O   0  0  0  0  0  0  0  0  0  0  0  0
    0.7500  -10.4156    0.0000 C   0  0  0  0  0  0  0  0  0  0  0  0
   -0.7500  -10.4156    0.0000 C   0  0  0  0  0  0  0  0  0  0  0  0
   -1.2135   -8.9890    0.0000 N   0  0  0  0  0  0  0  0  0  0  0  0
    0.0000   -8.1073    0.0000 C   0  0  0  0  0  0  0  0  0  0  0  0
   -0.0000   -6.6073    0.0000 C   0  0  0  0  0  0  0  0  0  0  0  0
   -0.0000   -5.1073    0.0000 C   0  0  0  0  0  0  0  0  0  0  0  0
   -0.0000   -3.6073    0.0000 C   0  0  0  0  0  0  0  0  0  0  0  0
    1.2135   -2.7256    0.0000 C   0  0  0  0  0  0  0  0  0  0  0  0
    0.7500   -1.2990    0.0000 C   0  0  0  0  0  0  0  0  0  0  0  0
    1.5000    0.0000    0.0000 N   0  0  0  0  0  0  0  0  0  0  0  0
    0.7500    1.2990    0.0000 C   0  0  0  0  0  0  0  0  0  0  0  0
   -0.7500    1.2990    0.0000 N   0  0  0  0  0  0  0  0  0  0  0  0
   -1.5000    0.0000    0.0000 C   0  0  0  0  0  0  0  0  0  0  0  0
   -3.0000    0.0000    0.0000 N   0  0  0  0  0  0  0  0  0  0  0  0
   -3.7500    1.2990    0.0000 C   0  0  0  0  0  0  0  0  0  0  0  0
   -3.0000    2.5981    0.0000 C   0  0  0  0  0  0  0  0  0  0  0  0
   -3.7500    3.8971    0.0000 C   0  0  0  0  0  0  0  0  0  0  0  0
   -5.2500    3.8971    0.0000 C   0  0  0  0  0  0  0  0  0  0  0  0
   -6.0000    5.1962    0.0000 C   0  0  0  0  0  0  0  0  0  0  0  0
   -5.2500    6.4952    0.0000 C   0  0  0  0  0  0  0  0  0  0  0  0
   -3.7500    6.4952    0.0000 C   0  0  0  0  0  0  0  0  0  0  0  0
   -3.0000    7.7942    0.0000 C   0  0  0  0  0  0  0  0  0  0  0  0
   -3.7500    9.0933    0.0000 C   0  0  0  0  0  0  0  0  0  0  0  0
   -5.2500    9.0933    0.0000 C   0  0  0  0  0  0  0  0  0  0  0  0
   -6.0000    7.7942    0.0000 C   0  0  0  0  0  0  0  0  0  0  0  0
   -6.0000    2.5981    0.0000 C   0  0  0  0  0  0  0  0  0  0  0  0
   -5.2500    1.2990    0.0000 C   0  0  0  0  0  0  0  0  0  0  0  0
   -0.7500   -1.2990    0.0000 C   0  0  0  0  0  0  0  0  0  0  0  0
   -1.2135   -2.7256    0.0000 S   0  0  0  0  0  0  0  0  0  0  0  0
    1.2135   -8.9890    0.0000 C   0  0  0  0  0  0  0  0  0  0  0  0
    1.9033  -14.2129    0.0000 N   0  0  0  0  0  0  0  0  0  0  0  0
    1.2931  -15.5833    0.0000 C   0  0  0  0  0  0  0  0  0  0  0  0
    2.1748  -16.7968    0.0000 C   0  0  0  0  0  0  0  0  0  0  0  0
    3.6666  -16.6400    0.0000 O   0  0  0  0  0  0  0  0  0  0  0  0
    4.2767  -15.2697    0.0000 C   0  0  0  0  0  0  0  0  0  0  0  0
    3.3950  -14.0561    0.0000 C   0  0  0  0  0  0  0  0  0  0  0  0
  1  2  2  0
  2  3  1  0
  4  3  1  1
  4  5  1  0
  5  6  1  0
  6  7  1  0
  7  8  1  6
  8  9  3  0
  9 10  1  0
 10 11  2  0
 11 12  1  0
 12 13  2  0
 13 14  1  0
 14 15  2  0
 15 16  1  0
 16 17  1  0
 17 18  1  0
 18 19  2  0
 19 20  1  0
 20 21  2  0
 21 22  1  0
 22 23  1  0
 23 24  2  0
 24 25  1  0
 25 26  2  0
 26 27  1  0
 27 28  2  0
 21 29  1  0
 29 30  2  0
 16 31  2  0
 31 32  1  0
  7 33  1  0
  2 34  1  0
 34 35  1  0
 35 36  1  0
 36 37  1  0
 37 38  1  0
 38 39  1  0
 33  4  1  0
 39 34  1  0
 32 10  1  0
 31 12  1  0
 30 18  1  0
 28 23  1  0
M  END
>  <Compound_ID>  (337) 
CHEMBL1909409

>  <Molecule Name>  (337) 
GSK-238583A

>  <Molecular Weight>  (337) 
653.68

>  <AlogP>  (337) 
4.58

>  <Smiles>  (337) 
O=C(O[C@H]1CN[C@H](C#Cc2cc3ncnc(Nc4ccc(Cc5ccccc5)cc4)c3s2)C1)N1CCOCC1

>  <Standard Type>  (337) 
Inhibition

>  <Standard Relation>  (337) 
'='

>  <Standard Units>  (337) 
%

>  <Standard Value>  (337) 
-0.1

>  <Assay ChEMBL ID>  (337) 
CHEMBL1962174

>  <Assay Description>  (337) 
GSK_PKIS: SYK mean inhibition at 0.1 uM [Nanosyn]

>  <BAO Format ID>  (337) 
BAO_0000357

>  <BAO Label>  (337) 
single protein format

>  <Assay Organism>  (337) 
None

>  <Target ChEMBL ID>  (337) 
CHEMBL2599

>  <Target Name>  (337) 
Tyrosine-protein kinase SYK

>  <Target Organism>  (337) 
Homo sapiens

>  <Target Type>  (337) 
SINGLE PROTEIN

>  <Document ChEMBL ID>  (337) 
CHEMBL1961873

>  <Source Description>  (337) 
GSK Published Kinase Inhibitor Set

>  <Document Journal>  (337) 
nan

>  <Document Year>  (337) 
nan

>  <Active>  (337) 
0.0

>  <bits>  (337) 
<rdkit.DataStructs.cDataStructs.ExplicitBitVect object at 0x00000193F33E3ED0>

>  <Group>  (337) 
G2

$$$$

     RDKit          2D

 24 26  0  0  0  0  0  0  0  0999 V2000
    5.2500   -1.2990    0.0000 C   0  0  0  0  0  0  0  0  0  0  0  0
    3.7500   -1.2990    0.0000 O   0  0  0  0  0  0  0  0  0  0  0  0
    3.0000    0.0000    0.0000 C   0  0  0  0  0  0  0  0  0  0  0  0
    3.7500    1.2990    0.0000 O   0  0  0  0  0  0  0  0  0  0  0  0
    1.5000    0.0000    0.0000 C   0  0  0  0  0  0  0  0  0  0  0  0
    0.7500   -1.2990    0.0000 C   0  0  0  0  0  0  0  0  0  0  0  0
   -0.7500   -1.2990    0.0000 C   0  0  0  0  0  0  0  0  0  0  0  0
   -1.5000    0.0000    0.0000 C   0  0  0  0  0  0  0  0  0  0  0  0
   -0.7500    1.2990    0.0000 C   0  0  0  0  0  0  0  0  0  0  0  0
    0.7500    1.2990    0.0000 C   0  0  0  0  0  0  0  0  0  0  0  0
   -1.7537    2.4138    0.0000 C   0  0  0  0  0  0  0  0  0  0  0  0
   -1.4418    3.8810    0.0000 C   0  0  0  0  0  0  0  0  0  0  0  0
   -2.5565    4.8847    0.0000 C   0  0  0  0  0  0  0  0  0  0  0  0
   -2.2447    6.3519    0.0000 C   0  0  0  0  0  0  0  0  0  0  0  0
   -3.3594    7.3556    0.0000 C   0  0  0  0  0  0  0  0  0  0  0  0
   -3.0475    8.8228    0.0000 Br  0  0  0  0  0  0  0  0  0  0  0  0
   -4.7860    6.8921    0.0000 C   0  0  0  0  0  0  0  0  0  0  0  0
   -5.9007    7.8958    0.0000 O   0  0  0  0  0  0  0  0  0  0  0  0
   -5.0978    5.4248    0.0000 C   0  0  0  0  0  0  0  0  0  0  0  0
   -6.5244    4.9613    0.0000 Br  0  0  0  0  0  0  0  0  0  0  0  0
   -3.9831    4.4211    0.0000 C   0  0  0  0  0  0  0  0  0  0  0  0
   -3.1240    1.8037    0.0000 C   0  0  0  0  0  0  0  0  0  0  0  0
   -4.4231    2.5537    0.0000 O   0  0  0  0  0  0  0  0  0  0  0  0
   -2.9672    0.3119    0.0000 N   0  0  0  0  0  0  0  0  0  0  0  0
  1  2  1  0
  2  3  1  0
  3  4  2  0
  3  5  1  0
  5  6  2  0
  6  7  1  0
  7  8  2  0
  8  9  1  0
  9 10  2  0
  9 11  1  0
 11 12  2  3
 12 13  1  0
 13 14  2  0
 14 15  1  0
 15 16  1  0
 15 17  2  0
 17 18  1  0
 17 19  1  0
 19 20  1  0
 19 21  2  0
 11 22  1  0
 22 23  2  0
 22 24  1  0
 10  5  1  0
 21 13  1  0
 24  8  1  0
M  END
>  <Compound_ID>  (338) 
CHEMBL1794052

>  <Molecule Name>  (338) 
GW405841X

>  <Molecular Weight>  (338) 
453.09

>  <AlogP>  (338) 
4.20

>  <Smiles>  (338) 
COC(=O)c1ccc2c(c1)C(=Cc1cc(Br)c(O)c(Br)c1)C(=O)N2

>  <Standard Type>  (338) 
Inhibition

>  <Standard Relation>  (338) 
'='

>  <Standard Units>  (338) 
%

>  <Standard Value>  (338) 
-1.69

>  <Assay ChEMBL ID>  (338) 
CHEMBL1962175

>  <Assay Description>  (338) 
GSK_PKIS: SYK mean inhibition at 1 uM [Nanosyn]

>  <BAO Format ID>  (338) 
BAO_0000357

>  <BAO Label>  (338) 
single protein format

>  <Assay Organism>  (338) 
None

>  <Target ChEMBL ID>  (338) 
CHEMBL2599

>  <Target Name>  (338) 
Tyrosine-protein kinase SYK

>  <Target Organism>  (338) 
Homo sapiens

>  <Target Type>  (338) 
SINGLE PROTEIN

>  <Document ChEMBL ID>  (338) 
CHEMBL1961873

>  <Source Description>  (338) 
GSK Published Kinase Inhibitor Set

>  <Document Journal>  (338) 
nan

>  <Document Year>  (338) 
nan

>  <Active>  (338) 
0.0

>  <bits>  (338) 
<rdkit.DataStructs.cDataStructs.ExplicitBitVect object at 0x00000193F33E36F0>

>  <Group>  (338) 
G2

$$$$

     RDKit          2D

 31 34  0  0  0  0  0  0  0  0999 V2000
    3.0000   -2.5981    0.0000 O   0  0  0  0  0  0  0  0  0  0  0  0
    1.5000   -2.5981    0.0000 C   0  0  0  0  0  0  0  0  0  0  0  0
    0.7500   -3.8971    0.0000 N   0  0  0  0  0  0  0  0  0  0  0  0
    1.5000   -5.1962    0.0000 C   0  0  0  0  0  0  0  0  0  0  0  0
    3.0000   -5.1962    0.0000 C   0  0  0  0  0  0  0  0  0  0  0  0
    3.7500   -6.4952    0.0000 O   0  0  0  0  0  0  0  0  0  0  0  0
    0.7500   -6.4952    0.0000 C   0  0  0  0  0  0  0  0  0  0  0  0
   -0.7500   -6.4952    0.0000 C   0  0  0  0  0  0  0  0  0  0  0  0
   -1.5000   -7.7942    0.0000 C   0  0  0  0  0  0  0  0  0  0  0  0
   -0.7500   -9.0933    0.0000 C   0  0  0  0  0  0  0  0  0  0  0  0
   -1.5000  -10.3923    0.0000 Cl  0  0  0  0  0  0  0  0  0  0  0  0
    0.7500   -9.0933    0.0000 C   0  0  0  0  0  0  0  0  0  0  0  0
    1.5000  -10.3923    0.0000 F   0  0  0  0  0  0  0  0  0  0  0  0
    1.5000   -7.7942    0.0000 C   0  0  0  0  0  0  0  0  0  0  0  0
    0.7500   -1.2990    0.0000 N   0  0  0  0  0  0  0  0  0  0  0  0
    1.5000    0.0000    0.0000 C   0  0  0  0  0  0  0  0  0  0  0  0
    0.7500    1.2990    0.0000 C   0  0  0  0  0  0  0  0  0  0  0  0
   -0.7500    1.2990    0.0000 C   0  0  0  0  0  0  0  0  0  0  0  0
   -1.5000    2.5981    0.0000 C   0  0  0  0  0  0  0  0  0  0  0  0
   -3.0000    2.5981    0.0000 N   0  0  0  0  0  0  0  0  0  0  0  0
   -3.7500    1.2990    0.0000 C   0  0  0  0  0  0  0  0  0  0  0  0
   -5.2500    1.2990    0.0000 N   0  0  0  0  0  0  0  0  0  0  0  0
   -6.0000    2.5981    0.0000 C   0  0  0  0  0  0  0  0  0  0  0  0
   -5.2500    3.8971    0.0000 C   0  0  0  0  0  0  0  0  0  0  0  0
   -6.0000    5.1962    0.0000 C   0  0  0  0  0  0  0  0  0  0  0  0
   -7.5000    5.1962    0.0000 O   0  0  0  0  0  0  0  0  0  0  0  0
   -8.2500    3.8971    0.0000 C   0  0  0  0  0  0  0  0  0  0  0  0
   -7.5000    2.5981    0.0000 C   0  0  0  0  0  0  0  0  0  0  0  0
   -3.0000    0.0000    0.0000 N   0  0  0  0  0  0  0  0  0  0  0  0
   -1.5000    0.0000    0.0000 C   0  0  0  0  0  0  0  0  0  0  0  0
   -0.7500   -1.2990    0.0000 C   0  0  0  0  0  0  0  0  0  0  0  0
  1  2  2  0
  2  3  1  0
  3  4  1  0
  4  5  1  6
  5  6  1  0
  4  7  1  0
  7  8  2  0
  8  9  1  0
  9 10  2  0
 10 11  1  0
 10 12  1  0
 12 13  1  0
 12 14  2  0
  2 15  1  0
 15 16  1  0
 16 17  1  0
 17 18  1  0
 18 19  2  0
 19 20  1  0
 20 21  2  0
 21 22  1  0
 22 23  1  0
 23 24  1  0
 24 25  1  0
 25 26  1  0
 26 27  1  0
 27 28  1  0
 21 29  1  0
 29 30  2  0
 30 31  1  0
 14  7  1  0
 31 15  1  0
 30 18  1  0
 28 23  1  0
M  END
>  <Compound_ID>  (339) 
CHEMBL3298678

>  <Molecule Name>  (339) 
nan

>  <Molecular Weight>  (339) 
449.91

>  <AlogP>  (339) 
2.66

>  <Smiles>  (339) 
O=C(N[C@H](CO)c1ccc(Cl)c(F)c1)N1CCc2cnc(NC3CCOCC3)nc2C1

>  <Standard Type>  (339) 
Inhibition

>  <Standard Relation>  (339) 
'='

>  <Standard Units>  (339) 
%

>  <Standard Value>  (339) 
4.6

>  <Assay ChEMBL ID>  (339) 
CHEMBL3369200

>  <Assay Description>  (339) 
Inhibition of Syk (unknown origin) at 100 nM

>  <BAO Format ID>  (339) 
BAO_0000357

>  <BAO Label>  (339) 
single protein format

>  <Assay Organism>  (339) 
Homo sapiens

>  <Target ChEMBL ID>  (339) 
CHEMBL2599

>  <Target Name>  (339) 
Tyrosine-protein kinase SYK

>  <Target Organism>  (339) 
Homo sapiens

>  <Target Type>  (339) 
SINGLE PROTEIN

>  <Document ChEMBL ID>  (339) 
CHEMBL3297705

>  <Source Description>  (339) 
Scientific Literature

>  <Document Journal>  (339) 
Bioorg Med Chem Lett

>  <Document Year>  (339) 
2014.0

>  <Active>  (339) 
0.0

>  <bits>  (339) 
<rdkit.DataStructs.cDataStructs.ExplicitBitVect object at 0x00000193F33E2F80>

>  <Group>  (339) 
G2

$$$$

     RDKit          2D

 19 20  0  0  0  0  0  0  0  0999 V2000
   -0.6546  -12.7344    0.0000 N   0  0  0  0  0  0  0  0  0  0  0  0
   -0.8113  -11.2427    0.0000 C   0  0  0  0  0  0  0  0  0  0  0  0
    0.4022  -10.3610    0.0000 C   0  0  0  0  0  0  0  0  0  0  0  0
    0.2454   -8.8692    0.0000 N   0  0  0  0  0  0  0  0  0  0  0  0
   -1.0537   -8.1192    0.0000 C   0  0  0  0  0  0  0  0  0  0  0  0
   -2.4240   -8.7293    0.0000 O   0  0  0  0  0  0  0  0  0  0  0  0
   -0.7418   -6.6520    0.0000 S   0  0  0  0  0  0  0  0  0  0  0  0
    0.7500   -6.4952    0.0000 C   0  0  0  0  0  0  0  0  0  0  0  0
    1.5000   -5.1962    0.0000 C   0  0  0  0  0  0  0  0  0  0  0  0
    0.7500   -3.8971    0.0000 C   0  0  0  0  0  0  0  0  0  0  0  0
    1.5000   -2.5981    0.0000 C   0  0  0  0  0  0  0  0  0  0  0  0
    0.7500   -1.2990    0.0000 C   0  0  0  0  0  0  0  0  0  0  0  0
    1.5000    0.0000    0.0000 C   0  0  0  0  0  0  0  0  0  0  0  0
    0.7500    1.2990    0.0000 C   0  0  0  0  0  0  0  0  0  0  0  0
   -0.7500    1.2990    0.0000 C   0  0  0  0  0  0  0  0  0  0  0  0
   -1.5000    0.0000    0.0000 C   0  0  0  0  0  0  0  0  0  0  0  0
   -0.7500   -1.2990    0.0000 C   0  0  0  0  0  0  0  0  0  0  0  0
    1.3601   -7.8655    0.0000 C   0  0  0  0  0  0  0  0  0  0  0  0
    2.8273   -8.1774    0.0000 O   0  0  0  0  0  0  0  0  0  0  0  0
  1  2  1  0
  2  3  1  0
  3  4  1  0
  4  5  1  0
  5  6  2  0
  5  7  1  0
  7  8  1  0
  8  9  2  0
  9 10  1  0
 10 11  1  0
 11 12  1  0
 12 13  1  0
 13 14  1  0
 14 15  1  0
 15 16  1  0
 16 17  1  0
  8 18  1  0
 18 19  2  0
 18  4  1  0
 17 12  1  0
M  END
>  <Compound_ID>  (340) 
CHEMBL1929247

>  <Molecule Name>  (340) 
nan

>  <Molecular Weight>  (340) 
282.41

>  <AlogP>  (340) 
2.88

>  <Smiles>  (340) 
NCCN1C(=O)S/C(=C\CCC2CCCCC2)C1=O

>  <Standard Type>  (340) 
Inhibition

>  <Standard Relation>  (340) 
'='

>  <Standard Units>  (340) 
%

>  <Standard Value>  (340) 
9.0

>  <Assay ChEMBL ID>  (340) 
CHEMBL1929900

>  <Assay Description>  (340) 
Inhibition of SYK at 10 uM

>  <BAO Format ID>  (340) 
BAO_0000357

>  <BAO Label>  (340) 
single protein format

>  <Assay Organism>  (340) 
None

>  <Target ChEMBL ID>  (340) 
CHEMBL2599

>  <Target Name>  (340) 
Tyrosine-protein kinase SYK

>  <Target Organism>  (340) 
Homo sapiens

>  <Target Type>  (340) 
SINGLE PROTEIN

>  <Document ChEMBL ID>  (340) 
CHEMBL1926538

>  <Source Description>  (340) 
Scientific Literature

>  <Document Journal>  (340) 
Eur J Med Chem

>  <Document Year>  (340) 
2012.0

>  <Active>  (340) 
0.0

>  <bits>  (340) 
<rdkit.DataStructs.cDataStructs.ExplicitBitVect object at 0x00000193F33E2E30>

>  <Group>  (340) 
G2

$$$$

     RDKit          2D

 33 36  0  0  0  0  0  0  0  0999 V2000
    1.3299    5.6152    0.0000 C   0  0  0  0  0  0  0  0  0  0  0  0
   -0.0967    5.1517    0.0000 O   0  0  0  0  0  0  0  0  0  0  0  0
   -0.4086    3.6844    0.0000 C   0  0  0  0  0  0  0  0  0  0  0  0
    0.7062    2.6807    0.0000 C   0  0  0  0  0  0  0  0  0  0  0  0
    0.3943    1.2135    0.0000 C   0  0  0  0  0  0  0  0  0  0  0  0
    1.2760    0.0000    0.0000 N   0  0  0  0  0  0  0  0  0  0  0  0
    0.3943   -1.2135    0.0000 C   0  0  0  0  0  0  0  0  0  0  0  0
   -1.0323   -0.7500    0.0000 N   0  0  0  0  0  0  0  0  0  0  0  0
   -2.2458   -1.6317    0.0000 C   0  0  0  0  0  0  0  0  0  0  0  0
   -2.2458   -3.1317    0.0000 C   0  0  0  0  0  0  0  0  0  0  0  0
   -3.6724   -3.5952    0.0000 C   0  0  0  0  0  0  0  0  0  0  0  0
   -4.1359   -5.0218    0.0000 O   0  0  0  0  0  0  0  0  0  0  0  0
   -5.6031   -5.3337    0.0000 C   0  0  0  0  0  0  0  0  0  0  0  0
   -6.0667   -6.7602    0.0000 C   0  0  0  0  0  0  0  0  0  0  0  0
   -7.5339   -7.0721    0.0000 C   0  0  0  0  0  0  0  0  0  0  0  0
   -7.9974   -8.4987    0.0000 C   0  0  0  0  0  0  0  0  0  0  0  0
   -6.9937   -9.6134    0.0000 C   0  0  0  0  0  0  0  0  0  0  0  0
   -5.5265   -9.3015    0.0000 C   0  0  0  0  0  0  0  0  0  0  0  0
   -5.0630   -7.8750    0.0000 C   0  0  0  0  0  0  0  0  0  0  0  0
   -3.5958   -7.5631    0.0000 C   0  0  0  0  0  0  0  0  0  0  0  0
   -2.1285   -7.2512    0.0000 F   0  0  0  0  0  0  0  0  0  0  0  0
   -3.2839   -9.0303    0.0000 F   0  0  0  0  0  0  0  0  0  0  0  0
   -3.9076   -6.0959    0.0000 F   0  0  0  0  0  0  0  0  0  0  0  0
   -4.5541   -2.3817    0.0000 C   0  0  0  0  0  0  0  0  0  0  0  0
   -6.0541   -2.3817    0.0000 C   0  0  0  0  0  0  0  0  0  0  0  0
   -6.8041   -1.0826    0.0000 N   0  0  0  0  0  0  0  0  0  0  0  0
   -6.8041   -3.6807    0.0000 O   0  0  0  0  0  0  0  0  0  0  0  0
   -3.6724   -1.1682    0.0000 S   0  0  0  0  0  0  0  0  0  0  0  0
   -1.0323    0.7500    0.0000 C   0  0  0  0  0  0  0  0  0  0  0  0
   -2.1470    1.7537    0.0000 C   0  0  0  0  0  0  0  0  0  0  0  0
   -1.8351    3.2209    0.0000 C   0  0  0  0  0  0  0  0  0  0  0  0
   -2.9499    4.2246    0.0000 O   0  0  0  0  0  0  0  0  0  0  0  0
   -4.3764    3.7611    0.0000 C   0  0  0  0  0  0  0  0  0  0  0  0
  1  2  1  0
  2  3  1  0
  3  4  2  0
  4  5  1  0
  5  6  1  0
  6  7  2  0
  7  8  1  0
  8  9  1  0
  9 10  2  0
 10 11  1  0
 11 12  1  0
 12 13  1  0
 13 14  1  0
 14 15  2  0
 15 16  1  0
 16 17  2  0
 17 18  1  0
 18 19  2  0
 19 20  1  0
 20 21  1  0
 20 22  1  0
 20 23  1  0
 11 24  2  0
 24 25  1  0
 25 26  1  0
 25 27  2  0
 24 28  1  0
  8 29  1  0
 29 30  1  0
 30 31  2  0
 31 32  1  0
 32 33  1  0
 31  3  1  0
 29  5  2  0
 28  9  1  0
 19 14  1  0
M  END
>  <Compound_ID>  (341) 
CHEMBL514499

>  <Molecule Name>  (341) 
GW843682X

>  <Molecular Weight>  (341) 
477.46

>  <AlogP>  (341) 
4.80

>  <Smiles>  (341) 
COc1cc2ncn(-c3cc(OCc4ccccc4C(F)(F)F)c(C(N)=O)s3)c2cc1OC

>  <Standard Type>  (341) 
Inhibition

>  <Standard Relation>  (341) 
'='

>  <Standard Units>  (341) 
%

>  <Standard Value>  (341) 
-7.75

>  <Assay ChEMBL ID>  (341) 
CHEMBL1962175

>  <Assay Description>  (341) 
GSK_PKIS: SYK mean inhibition at 1 uM [Nanosyn]

>  <BAO Format ID>  (341) 
BAO_0000357

>  <BAO Label>  (341) 
single protein format

>  <Assay Organism>  (341) 
None

>  <Target ChEMBL ID>  (341) 
CHEMBL2599

>  <Target Name>  (341) 
Tyrosine-protein kinase SYK

>  <Target Organism>  (341) 
Homo sapiens

>  <Target Type>  (341) 
SINGLE PROTEIN

>  <Document ChEMBL ID>  (341) 
CHEMBL1961873

>  <Source Description>  (341) 
GSK Published Kinase Inhibitor Set

>  <Document Journal>  (341) 
nan

>  <Document Year>  (341) 
nan

>  <Active>  (341) 
0.0

>  <bits>  (341) 
<rdkit.DataStructs.cDataStructs.ExplicitBitVect object at 0x00000193F33E3B50>

>  <Group>  (341) 
G2

$$$$

     RDKit          2D

 43 47  0  0  0  0  0  0  0  0999 V2000
   -6.2940    7.2357    0.0000 C   0  0  0  0  0  0  0  0  0  0  0  0
   -5.1793    6.2320    0.0000 O   0  0  0  0  0  0  0  0  0  0  0  0
   -3.7527    6.6955    0.0000 C   0  0  0  0  0  0  0  0  0  0  0  0
   -3.4408    8.1628    0.0000 C   0  0  0  0  0  0  0  0  0  0  0  0
   -2.0143    8.6263    0.0000 C   0  0  0  0  0  0  0  0  0  0  0  0
   -1.7024   10.0935    0.0000 N   0  0  0  0  0  0  0  0  0  0  0  0
   -0.2758   10.5570    0.0000 C   0  0  0  0  0  0  0  0  0  0  0  0
    0.0361   12.0242    0.0000 C   0  0  0  0  0  0  0  0  0  0  0  0
   -1.0786   13.0279    0.0000 N   0  0  0  0  0  0  0  0  0  0  0  0
   -0.7668   14.4952    0.0000 C   0  0  0  0  0  0  0  0  0  0  0  0
    0.6598   14.9587    0.0000 C   0  0  0  0  0  0  0  0  0  0  0  0
   -1.8815   15.4989    0.0000 C   0  0  0  0  0  0  0  0  0  0  0  0
   -2.5052   12.5644    0.0000 C   0  0  0  0  0  0  0  0  0  0  0  0
   -2.8171   11.0972    0.0000 C   0  0  0  0  0  0  0  0  0  0  0  0
   -0.8995    7.6226    0.0000 C   0  0  0  0  0  0  0  0  0  0  0  0
   -1.2114    6.1554    0.0000 C   0  0  0  0  0  0  0  0  0  0  0  0
   -2.6380    5.6918    0.0000 C   0  0  0  0  0  0  0  0  0  0  0  0
   -2.9499    4.2246    0.0000 N   0  0  0  0  0  0  0  0  0  0  0  0
   -1.8351    3.2209    0.0000 C   0  0  0  0  0  0  0  0  0  0  0  0
   -0.4086    3.6844    0.0000 N   0  0  0  0  0  0  0  0  0  0  0  0
    0.7062    2.6807    0.0000 C   0  0  0  0  0  0  0  0  0  0  0  0
    2.1328    3.1443    0.0000 N   0  0  0  0  0  0  0  0  0  0  0  0
    2.4446    4.6115    0.0000 C   0  0  0  0  0  0  0  0  0  0  0  0
    1.3299    5.6152    0.0000 C   0  0  0  0  0  0  0  0  0  0  0  0
    1.6418    7.0824    0.0000 C   0  0  0  0  0  0  0  0  0  0  0  0
    3.0684    7.5459    0.0000 C   0  0  0  0  0  0  0  0  0  0  0  0
    3.3802    9.0132    0.0000 F   0  0  0  0  0  0  0  0  0  0  0  0
    4.1831    6.5422    0.0000 C   0  0  0  0  0  0  0  0  0  0  0  0
    3.8712    5.0750    0.0000 C   0  0  0  0  0  0  0  0  0  0  0  0
    4.9859    4.0713    0.0000 C   0  0  0  0  0  0  0  0  0  0  0  0
    6.4125    4.5348    0.0000 O   0  0  0  0  0  0  0  0  0  0  0  0
    4.6741    2.6041    0.0000 N   0  0  0  0  0  0  0  0  0  0  0  0
    5.7888    1.6004    0.0000 C   0  0  0  0  0  0  0  0  0  0  0  0
    5.4769    0.1332    0.0000 C   0  0  0  0  0  0  0  0  0  0  0  0
    4.0503   -0.3303    0.0000 O   0  0  0  0  0  0  0  0  0  0  0  0
    6.5916   -0.8705    0.0000 C   0  0  0  0  0  0  0  0  0  0  0  0
    6.2798   -2.3377    0.0000 O   0  0  0  0  0  0  0  0  0  0  0  0
    0.3943    1.2135    0.0000 C   0  0  0  0  0  0  0  0  0  0  0  0
    1.2760    0.0000    0.0000 C   0  0  0  0  0  0  0  0  0  0  0  0
    0.3943   -1.2135    0.0000 C   0  0  0  0  0  0  0  0  0  0  0  0
   -1.0323   -0.7500    0.0000 N   0  0  0  0  0  0  0  0  0  0  0  0
   -1.0323    0.7500    0.0000 C   0  0  0  0  0  0  0  0  0  0  0  0
   -2.1470    1.7537    0.0000 N   0  0  0  0  0  0  0  0  0  0  0  0
  1  2  1  0
  2  3  1  0
  3  4  2  0
  4  5  1  0
  5  6  1  0
  6  7  1  0
  7  8  1  0
  8  9  1  0
  9 10  1  0
 10 11  1  0
 10 12  1  0
  9 13  1  0
 13 14  1  0
  5 15  2  0
 15 16  1  0
 16 17  2  0
 17 18  1  0
 18 19  1  0
 19 20  2  0
 20 21  1  0
 21 22  1  0
 22 23  1  0
 23 24  2  0
 24 25  1  0
 25 26  2  0
 26 27  1  0
 26 28  1  0
 28 29  2  0
 29 30  1  0
 30 31  2  0
 30 32  1  0
 32 33  1  0
 33 34  1  0
 34 35  1  6
 34 36  1  0
 36 37  1  0
 21 38  2  0
 38 39  1  0
 39 40  2  0
 40 41  1  0
 41 42  1  0
 42 43  2  0
 17  3  1  0
 43 19  1  0
 14  6  1  0
 29 23  1  0
 42 38  1  0
M  END
>  <Compound_ID>  (342) 
CHEMBL450071

>  <Molecule Name>  (342) 
GSK-1392956A

>  <Molecular Weight>  (342) 
592.68

>  <AlogP>  (342) 
3.21

>  <Smiles>  (342) 
COc1cc(N2CCN(C(C)C)CC2)ccc1Nc1nc(Nc2ccc(F)cc2C(=O)NC[C@@H](O)CO)c2cc[nH]c2n1

>  <Standard Type>  (342) 
Inhibition

>  <Standard Relation>  (342) 
'='

>  <Standard Units>  (342) 
%

>  <Standard Value>  (342) 
-2.57

>  <Assay ChEMBL ID>  (342) 
CHEMBL1962175

>  <Assay Description>  (342) 
GSK_PKIS: SYK mean inhibition at 1 uM [Nanosyn]

>  <BAO Format ID>  (342) 
BAO_0000357

>  <BAO Label>  (342) 
single protein format

>  <Assay Organism>  (342) 
None

>  <Target ChEMBL ID>  (342) 
CHEMBL2599

>  <Target Name>  (342) 
Tyrosine-protein kinase SYK

>  <Target Organism>  (342) 
Homo sapiens

>  <Target Type>  (342) 
SINGLE PROTEIN

>  <Document ChEMBL ID>  (342) 
CHEMBL1961873

>  <Source Description>  (342) 
GSK Published Kinase Inhibitor Set

>  <Document Journal>  (342) 
nan

>  <Document Year>  (342) 
nan

>  <Active>  (342) 
0.0

>  <bits>  (342) 
<rdkit.DataStructs.cDataStructs.ExplicitBitVect object at 0x00000193F33E3450>

>  <Group>  (342) 
G2

$$$$

     RDKit          2D

 21 22  0  0  0  0  0  0  0  0999 V2000
    5.2500   -1.2990    0.0000 C   0  0  0  0  0  0  0  0  0  0  0  0
    3.7500   -1.2990    0.0000 O   0  0  0  0  0  0  0  0  0  0  0  0
    3.0000    0.0000    0.0000 C   0  0  0  0  0  0  0  0  0  0  0  0
    3.7500    1.2990    0.0000 O   0  0  0  0  0  0  0  0  0  0  0  0
    1.5000    0.0000    0.0000 C   0  0  0  0  0  0  0  0  0  0  0  0
    0.7500   -1.2990    0.0000 C   0  0  0  0  0  0  0  0  0  0  0  0
   -0.7500   -1.2990    0.0000 N   0  0  0  0  0  0  0  0  0  0  0  0
   -1.5000    0.0000    0.0000 C   0  0  0  0  0  0  0  0  0  0  0  0
   -0.7500    1.2990    0.0000 C   0  0  0  0  0  0  0  0  0  0  0  0
   -1.5000    2.5981    0.0000 C   0  0  0  0  0  0  0  0  0  0  0  0
   -0.7500    3.8971    0.0000 C   0  0  0  0  0  0  0  0  0  0  0  0
   -1.5000    5.1962    0.0000 C   0  0  0  0  0  0  0  0  0  0  0  0
   -0.7500    6.4952    0.0000 C   0  0  0  0  0  0  0  0  0  0  0  0
    0.7500    6.4952    0.0000 C   0  0  0  0  0  0  0  0  0  0  0  0
   -1.5000    7.7942    0.0000 C   0  0  0  0  0  0  0  0  0  0  0  0
   -3.0000    7.7942    0.0000 C   0  0  0  0  0  0  0  0  0  0  0  0
   -3.7500    9.0933    0.0000 O   0  0  0  0  0  0  0  0  0  0  0  0
   -3.7500    6.4952    0.0000 C   0  0  0  0  0  0  0  0  0  0  0  0
   -3.0000    5.1962    0.0000 C   0  0  0  0  0  0  0  0  0  0  0  0
   -3.7500    3.8971    0.0000 C   0  0  0  0  0  0  0  0  0  0  0  0
    0.7500    1.2990    0.0000 C   0  0  0  0  0  0  0  0  0  0  0  0
  1  2  1  0
  2  3  1  0
  3  4  2  0
  3  5  1  0
  5  6  2  0
  6  7  1  0
  7  8  2  0
  8  9  1  0
  9 10  1  0
 10 11  2  0
 11 12  1  0
 12 13  2  0
 13 14  1  0
 13 15  1  0
 15 16  2  0
 16 17  1  0
 16 18  1  0
 18 19  2  0
 19 20  1  0
  9 21  2  0
 21  5  1  0
 19 12  1  0
M  END
>  <Compound_ID>  (343) 
CHEMBL220243

>  <Molecule Name>  (343) 
GW406731X

>  <Molecular Weight>  (343) 
283.33

>  <AlogP>  (343) 
3.36

>  <Smiles>  (343) 
COC(=O)c1cncc(/C=C/c2c(C)cc(O)cc2C)c1

>  <Standard Type>  (343) 
Inhibition

>  <Standard Relation>  (343) 
'='

>  <Standard Units>  (343) 
%

>  <Standard Value>  (343) 
-5.74

>  <Assay ChEMBL ID>  (343) 
CHEMBL1962174

>  <Assay Description>  (343) 
GSK_PKIS: SYK mean inhibition at 0.1 uM [Nanosyn]

>  <BAO Format ID>  (343) 
BAO_0000357

>  <BAO Label>  (343) 
single protein format

>  <Assay Organism>  (343) 
None

>  <Target ChEMBL ID>  (343) 
CHEMBL2599

>  <Target Name>  (343) 
Tyrosine-protein kinase SYK

>  <Target Organism>  (343) 
Homo sapiens

>  <Target Type>  (343) 
SINGLE PROTEIN

>  <Document ChEMBL ID>  (343) 
CHEMBL1961873

>  <Source Description>  (343) 
GSK Published Kinase Inhibitor Set

>  <Document Journal>  (343) 
nan

>  <Document Year>  (343) 
nan

>  <Active>  (343) 
0.0

>  <bits>  (343) 
<rdkit.DataStructs.cDataStructs.ExplicitBitVect object at 0x00000193F33E35A0>

>  <Group>  (343) 
G2

$$$$

     RDKit          2D

 28 31  0  0  0  0  0  0  0  0999 V2000
   -3.5736    1.2902    0.0000 N   0  0  0  0  0  0  0  0  0  0  0  0
   -2.1470    1.7537    0.0000 C   0  0  0  0  0  0  0  0  0  0  0  0
   -1.8351    3.2209    0.0000 N   0  0  0  0  0  0  0  0  0  0  0  0
   -0.4086    3.6844    0.0000 C   0  0  0  0  0  0  0  0  0  0  0  0
    0.7062    2.6807    0.0000 C   0  0  0  0  0  0  0  0  0  0  0  0
    2.1328    3.1443    0.0000 C   0  0  0  0  0  0  0  0  0  0  0  0
    3.2475    2.1406    0.0000 C   0  0  0  0  0  0  0  0  0  0  0  0
    4.6741    2.6041    0.0000 C   0  0  0  0  0  0  0  0  0  0  0  0
    4.9859    4.0713    0.0000 C   0  0  0  0  0  0  0  0  0  0  0  0
    3.8712    5.0750    0.0000 C   0  0  0  0  0  0  0  0  0  0  0  0
    4.1831    6.5422    0.0000 S   0  0  0  0  0  0  0  0  0  0  0  0
    4.4949    8.0095    0.0000 N   0  0  0  0  0  0  0  0  0  0  0  0
    5.6503    6.2304    0.0000 O   0  0  0  0  0  0  0  0  0  0  0  0
    2.7158    6.8541    0.0000 O   0  0  0  0  0  0  0  0  0  0  0  0
    2.4446    4.6115    0.0000 C   0  0  0  0  0  0  0  0  0  0  0  0
    0.3943    1.2135    0.0000 C   0  0  0  0  0  0  0  0  0  0  0  0
    1.2760    0.0000    0.0000 S   0  0  0  0  0  0  0  0  0  0  0  0
    0.3943   -1.2135    0.0000 C   0  0  0  0  0  0  0  0  0  0  0  0
   -1.0323   -0.7500    0.0000 C   0  0  0  0  0  0  0  0  0  0  0  0
   -2.2458   -1.6317    0.0000 C   0  0  0  0  0  0  0  0  0  0  0  0
   -3.6161   -1.0216    0.0000 C   0  0  0  0  0  0  0  0  0  0  0  0
   -4.8297   -1.9033    0.0000 C   0  0  0  0  0  0  0  0  0  0  0  0
   -4.6729   -3.3950    0.0000 C   0  0  0  0  0  0  0  0  0  0  0  0
   -5.8864   -4.2767    0.0000 F   0  0  0  0  0  0  0  0  0  0  0  0
   -3.3025   -4.0051    0.0000 C   0  0  0  0  0  0  0  0  0  0  0  0
   -3.1458   -5.4969    0.0000 Cl  0  0  0  0  0  0  0  0  0  0  0  0
   -2.0890   -3.1235    0.0000 C   0  0  0  0  0  0  0  0  0  0  0  0
   -1.0323    0.7500    0.0000 C   0  0  0  0  0  0  0  0  0  0  0  0
  1  2  1  0
  2  3  2  0
  3  4  1  0
  4  5  2  0
  5  6  1  0
  6  7  2  0
  7  8  1  0
  8  9  2  0
  9 10  1  0
 10 11  1  0
 11 12  1  0
 11 13  2  0
 11 14  2  0
 10 15  2  0
  5 16  1  0
 16 17  1  0
 17 18  1  0
 18 19  2  0
 19 20  1  0
 20 21  2  0
 21 22  1  0
 22 23  2  0
 23 24  1  0
 23 25  1  0
 25 26  1  0
 25 27  2  0
 19 28  1  0
 28  2  1  0
 15  6  1  0
 28 16  2  0
 27 20  1  0
M  END
>  <Compound_ID>  (344) 
CHEMBL241517

>  <Molecule Name>  (344) 
GW856804X

>  <Molecular Weight>  (344) 
433.92

>  <AlogP>  (344) 
4.65

>  <Smiles>  (344) 
Nc1ncc(-c2cccc(S(N)(=O)=O)c2)c2scc(-c3ccc(F)c(Cl)c3)c12

>  <Standard Type>  (344) 
Inhibition

>  <Standard Relation>  (344) 
'='

>  <Standard Units>  (344) 
%

>  <Standard Value>  (344) 
-4.44

>  <Assay ChEMBL ID>  (344) 
CHEMBL1962175

>  <Assay Description>  (344) 
GSK_PKIS: SYK mean inhibition at 1 uM [Nanosyn]

>  <BAO Format ID>  (344) 
BAO_0000357

>  <BAO Label>  (344) 
single protein format

>  <Assay Organism>  (344) 
None

>  <Target ChEMBL ID>  (344) 
CHEMBL2599

>  <Target Name>  (344) 
Tyrosine-protein kinase SYK

>  <Target Organism>  (344) 
Homo sapiens

>  <Target Type>  (344) 
SINGLE PROTEIN

>  <Document ChEMBL ID>  (344) 
CHEMBL1961873

>  <Source Description>  (344) 
GSK Published Kinase Inhibitor Set

>  <Document Journal>  (344) 
nan

>  <Document Year>  (344) 
nan

>  <Active>  (344) 
0.0

>  <bits>  (344) 
<rdkit.DataStructs.cDataStructs.ExplicitBitVect object at 0x00000193F33E3E60>

>  <Group>  (344) 
G2

$$$$

     RDKit          2D

 23 25  0  0  0  0  0  0  0  0999 V2000
    3.0000   -0.0000    0.0000 C   0  0  0  0  0  0  0  0  0  0  0  0
    3.7500   -1.2990    0.0000 C   0  0  0  0  0  0  0  0  0  0  0  0
    5.2500   -1.2990    0.0000 C   0  0  0  0  0  0  0  0  0  0  0  0
    6.0000   -2.5981    0.0000 C   0  0  0  0  0  0  0  0  0  0  0  0
    5.2500   -3.8971    0.0000 C   0  0  0  0  0  0  0  0  0  0  0  0
    6.0000   -5.1962    0.0000 O   0  0  0  0  0  0  0  0  0  0  0  0
    3.7500   -3.8971    0.0000 C   0  0  0  0  0  0  0  0  0  0  0  0
    3.0000   -2.5981    0.0000 C   0  0  0  0  0  0  0  0  0  0  0  0
    1.5000   -2.5981    0.0000 N   0  0  0  0  0  0  0  0  0  0  0  0
    0.7500   -1.2990    0.0000 C   0  0  0  0  0  0  0  0  0  0  0  0
    1.5000    0.0000    0.0000 C   0  0  0  0  0  0  0  0  0  0  0  0
    0.7500    1.2990    0.0000 C   0  0  0  0  0  0  0  0  0  0  0  0
   -0.7500    1.2990    0.0000 N   0  0  0  0  0  0  0  0  0  0  0  0
   -1.5000    0.0000    0.0000 C   0  0  0  0  0  0  0  0  0  0  0  0
   -3.0000    0.0000    0.0000 C   0  0  0  0  0  0  0  0  0  0  0  0
   -3.7500   -1.2990    0.0000 C   0  0  0  0  0  0  0  0  0  0  0  0
   -3.0000   -2.5981    0.0000 C   0  0  0  0  0  0  0  0  0  0  0  0
   -3.7500   -3.8971    0.0000 S   0  0  0  0  0  0  0  0  0  0  0  0
   -4.5000   -5.1962    0.0000 C   0  0  0  0  0  0  0  0  0  0  0  0
   -2.4510   -4.6471    0.0000 O   0  0  0  0  0  0  0  0  0  0  0  0
   -5.0490   -3.1471    0.0000 O   0  0  0  0  0  0  0  0  0  0  0  0
   -1.5000   -2.5981    0.0000 C   0  0  0  0  0  0  0  0  0  0  0  0
   -0.7500   -1.2990    0.0000 C   0  0  0  0  0  0  0  0  0  0  0  0
  1  2  1  0
  2  3  2  0
  3  4  1  0
  4  5  2  0
  5  6  1  0
  5  7  1  0
  7  8  2  0
  8  9  1  0
  9 10  1  0
 10 11  2  0
 11 12  1  0
 12 13  2  0
 13 14  1  0
 14 15  2  0
 15 16  1  0
 16 17  2  0
 17 18  1  0
 18 19  1  0
 18 20  2  0
 18 21  2  0
 17 22  1  0
 22 23  2  0
  8  2  1  0
 23 10  1  0
 23 14  1  0
M  END
>  <Compound_ID>  (345) 
CHEMBL237347

>  <Molecule Name>  (345) 
GW559768X

>  <Molecular Weight>  (345) 
328.39

>  <AlogP>  (345) 
3.40

>  <Smiles>  (345) 
Cc1ccc(O)cc1Nc1ccnc2ccc(S(C)(=O)=O)cc12

>  <Standard Type>  (345) 
Inhibition

>  <Standard Relation>  (345) 
'='

>  <Standard Units>  (345) 
%

>  <Standard Value>  (345) 
-3.99

>  <Assay ChEMBL ID>  (345) 
CHEMBL1962175

>  <Assay Description>  (345) 
GSK_PKIS: SYK mean inhibition at 1 uM [Nanosyn]

>  <BAO Format ID>  (345) 
BAO_0000357

>  <BAO Label>  (345) 
single protein format

>  <Assay Organism>  (345) 
None

>  <Target ChEMBL ID>  (345) 
CHEMBL2599

>  <Target Name>  (345) 
Tyrosine-protein kinase SYK

>  <Target Organism>  (345) 
Homo sapiens

>  <Target Type>  (345) 
SINGLE PROTEIN

>  <Document ChEMBL ID>  (345) 
CHEMBL1961873

>  <Source Description>  (345) 
GSK Published Kinase Inhibitor Set

>  <Document Journal>  (345) 
nan

>  <Document Year>  (345) 
nan

>  <Active>  (345) 
0.0

>  <bits>  (345) 
<rdkit.DataStructs.cDataStructs.ExplicitBitVect object at 0x00000193F33E37D0>

>  <Group>  (345) 
G2

$$$$

     RDKit          2D

 18 20  0  0  0  0  0  0  0  0999 V2000
    1.5000    0.0000    0.0000 C   0  0  0  0  0  0  0  0  0  0  0  0
    0.7500   -1.2990    0.0000 C   0  0  0  0  0  0  0  0  0  0  0  0
   -0.7500   -1.2990    0.0000 C   0  0  0  0  0  0  0  0  0  0  0  0
   -1.5000    0.0000    0.0000 C   0  0  0  0  0  0  0  0  0  0  0  0
   -3.0000    0.0000    0.0000 N   0  0  0  0  0  0  0  0  0  0  0  0
   -3.7500    1.2990    0.0000 C   0  0  0  0  0  0  0  0  0  0  0  0
   -5.2418    1.4558    0.0000 N   0  0  0  0  0  0  0  0  0  0  0  0
   -5.5537    2.9231    0.0000 C   0  0  0  0  0  0  0  0  0  0  0  0
   -4.2546    3.6731    0.0000 C   0  0  0  0  0  0  0  0  0  0  0  0
   -4.0978    5.1648    0.0000 C   0  0  0  0  0  0  0  0  0  0  0  0
   -2.7275    5.7749    0.0000 C   0  0  0  0  0  0  0  0  0  0  0  0
   -2.5707    7.2667    0.0000 C   0  0  0  0  0  0  0  0  0  0  0  0
   -3.7842    8.1484    0.0000 C   0  0  0  0  0  0  0  0  0  0  0  0
   -5.1546    7.5383    0.0000 C   0  0  0  0  0  0  0  0  0  0  0  0
   -5.3113    6.0465    0.0000 C   0  0  0  0  0  0  0  0  0  0  0  0
   -3.1399    2.6694    0.0000 O   0  0  0  0  0  0  0  0  0  0  0  0
   -0.7500    1.2990    0.0000 C   0  0  0  0  0  0  0  0  0  0  0  0
    0.7500    1.2990    0.0000 C   0  0  0  0  0  0  0  0  0  0  0  0
  1  2  2  0
  2  3  1  0
  3  4  2  0
  4  5  1  0
  5  6  1  0
  6  7  2  0
  7  8  1  0
  8  9  2  0
  9 10  1  0
 10 11  2  0
 11 12  1  0
 12 13  2  0
 13 14  1  0
 14 15  2  0
  9 16  1  0
  4 17  1  0
 17 18  2  0
 18  1  1  0
 16  6  1  0
 15 10  1  0
M  END
>  <Compound_ID>  (346) 
CHEMBL318728

>  <Molecule Name>  (346) 
GW549390X

>  <Molecular Weight>  (346) 
236.27

>  <AlogP>  (346) 
4.09

>  <Smiles>  (346) 
c1ccc(Nc2ncc(-c3ccccc3)o2)cc1

>  <Standard Type>  (346) 
Inhibition

>  <Standard Relation>  (346) 
'='

>  <Standard Units>  (346) 
%

>  <Standard Value>  (346) 
1.8

>  <Assay ChEMBL ID>  (346) 
CHEMBL1962174

>  <Assay Description>  (346) 
GSK_PKIS: SYK mean inhibition at 0.1 uM [Nanosyn]

>  <BAO Format ID>  (346) 
BAO_0000357

>  <BAO Label>  (346) 
single protein format

>  <Assay Organism>  (346) 
None

>  <Target ChEMBL ID>  (346) 
CHEMBL2599

>  <Target Name>  (346) 
Tyrosine-protein kinase SYK

>  <Target Organism>  (346) 
Homo sapiens

>  <Target Type>  (346) 
SINGLE PROTEIN

>  <Document ChEMBL ID>  (346) 
CHEMBL1961873

>  <Source Description>  (346) 
GSK Published Kinase Inhibitor Set

>  <Document Journal>  (346) 
nan

>  <Document Year>  (346) 
nan

>  <Active>  (346) 
0.0

>  <bits>  (346) 
<rdkit.DataStructs.cDataStructs.ExplicitBitVect object at 0x00000193F33E3840>

>  <Group>  (346) 
G2

$$$$

     RDKit          2D

 22 25  0  0  0  0  0  0  0  0999 V2000
    0.0000   -9.6073    0.0000 F   0  0  0  0  0  0  0  0  0  0  0  0
    0.0000   -8.1073    0.0000 C   0  0  0  0  0  0  0  0  0  0  0  0
   -1.2990   -7.3573    0.0000 C   0  0  0  0  0  0  0  0  0  0  0  0
   -1.2990   -5.8573    0.0000 C   0  0  0  0  0  0  0  0  0  0  0  0
   -0.0000   -5.1073    0.0000 C   0  0  0  0  0  0  0  0  0  0  0  0
   -0.0000   -3.6073    0.0000 C   0  0  0  0  0  0  0  0  0  0  0  0
    1.2135   -2.7256    0.0000 N   0  0  0  0  0  0  0  0  0  0  0  0
    0.7500   -1.2990    0.0000 N   0  0  0  0  0  0  0  0  0  0  0  0
    1.5000    0.0000    0.0000 C   0  0  0  0  0  0  0  0  0  0  0  0
    0.7500    1.2990    0.0000 C   0  0  0  0  0  0  0  0  0  0  0  0
   -0.7500    1.2990    0.0000 C   0  0  0  0  0  0  0  0  0  0  0  0
   -1.5000    0.0000    0.0000 C   0  0  0  0  0  0  0  0  0  0  0  0
   -0.7500   -1.2990    0.0000 C   0  0  0  0  0  0  0  0  0  0  0  0
   -1.2135   -2.7256    0.0000 C   0  0  0  0  0  0  0  0  0  0  0  0
   -2.6401   -3.1891    0.0000 C   0  0  0  0  0  0  0  0  0  0  0  0
   -3.7548   -2.1855    0.0000 C   0  0  0  0  0  0  0  0  0  0  0  0
   -5.1814   -2.6490    0.0000 C   0  0  0  0  0  0  0  0  0  0  0  0
   -5.4933   -4.1162    0.0000 N   0  0  0  0  0  0  0  0  0  0  0  0
   -4.3786   -5.1199    0.0000 C   0  0  0  0  0  0  0  0  0  0  0  0
   -2.9520   -4.6564    0.0000 C   0  0  0  0  0  0  0  0  0  0  0  0
    1.2990   -5.8573    0.0000 C   0  0  0  0  0  0  0  0  0  0  0  0
    1.2990   -7.3573    0.0000 C   0  0  0  0  0  0  0  0  0  0  0  0
  1  2  1  0
  2  3  2  0
  3  4  1  0
  4  5  2  0
  5  6  1  0
  6  7  2  0
  7  8  1  0
  8  9  1  0
  9 10  2  0
 10 11  1  0
 11 12  2  0
 12 13  1  0
 13 14  2  0
 14 15  1  0
 15 16  2  0
 16 17  1  0
 17 18  2  0
 18 19  1  0
 19 20  2  0
  5 21  1  0
 21 22  2  0
 22  2  1  0
 14  6  1  0
 20 15  1  0
 13  8  1  0
M  END
>  <Compound_ID>  (347) 
CHEMBL485745

>  <Molecule Name>  (347) 
GW434756X

>  <Molecular Weight>  (347) 
289.31

>  <AlogP>  (347) 
4.20

>  <Smiles>  (347) 
Fc1ccc(-c2nn3ccccc3c2-c2ccncc2)cc1

>  <Standard Type>  (347) 
Inhibition

>  <Standard Relation>  (347) 
'='

>  <Standard Units>  (347) 
%

>  <Standard Value>  (347) 
0.32

>  <Assay ChEMBL ID>  (347) 
CHEMBL1962175

>  <Assay Description>  (347) 
GSK_PKIS: SYK mean inhibition at 1 uM [Nanosyn]

>  <BAO Format ID>  (347) 
BAO_0000357

>  <BAO Label>  (347) 
single protein format

>  <Assay Organism>  (347) 
None

>  <Target ChEMBL ID>  (347) 
CHEMBL2599

>  <Target Name>  (347) 
Tyrosine-protein kinase SYK

>  <Target Organism>  (347) 
Homo sapiens

>  <Target Type>  (347) 
SINGLE PROTEIN

>  <Document ChEMBL ID>  (347) 
CHEMBL1961873

>  <Source Description>  (347) 
GSK Published Kinase Inhibitor Set

>  <Document Journal>  (347) 
nan

>  <Document Year>  (347) 
nan

>  <Active>  (347) 
0.0

>  <bits>  (347) 
<rdkit.DataStructs.cDataStructs.ExplicitBitVect object at 0x00000193F33E3AE0>

>  <Group>  (347) 
G2

$$$$

     RDKit          2D

 20 22  0  0  0  0  0  0  0  0999 V2000
    4.5000    0.0000    0.0000 N   0  0  0  0  0  0  0  0  0  0  0  0
    3.0000    0.0000    0.0000 C   0  0  0  0  0  0  0  0  0  0  0  0
    1.5000    0.0000    0.0000 C   0  0  0  0  0  0  0  0  0  0  0  0
    0.7500   -1.2990    0.0000 C   0  0  0  0  0  0  0  0  0  0  0  0
   -0.7500   -1.2990    0.0000 C   0  0  0  0  0  0  0  0  0  0  0  0
   -1.5000    0.0000    0.0000 C   0  0  0  0  0  0  0  0  0  0  0  0
   -0.7500    1.2990    0.0000 C   0  0  0  0  0  0  0  0  0  0  0  0
   -1.5000    2.5981    0.0000 N   0  0  0  0  0  0  0  0  0  0  0  0
   -0.7500    3.8971    0.0000 C   0  0  0  0  0  0  0  0  0  0  0  0
   -1.3601    5.2674    0.0000 N   0  0  0  0  0  0  0  0  0  0  0  0
   -0.2454    6.2711    0.0000 C   0  0  0  0  0  0  0  0  0  0  0  0
    1.0537    5.5211    0.0000 C   0  0  0  0  0  0  0  0  0  0  0  0
    2.4240    6.1312    0.0000 C   0  0  0  0  0  0  0  0  0  0  0  0
    3.6375    5.2496    0.0000 C   0  0  0  0  0  0  0  0  0  0  0  0
    5.0078    5.8597    0.0000 C   0  0  0  0  0  0  0  0  0  0  0  0
    5.1646    7.3514    0.0000 C   0  0  0  0  0  0  0  0  0  0  0  0
    3.9511    8.2331    0.0000 C   0  0  0  0  0  0  0  0  0  0  0  0
    2.5808    7.6230    0.0000 C   0  0  0  0  0  0  0  0  0  0  0  0
    0.7418    4.0539    0.0000 O   0  0  0  0  0  0  0  0  0  0  0  0
    0.7500    1.2990    0.0000 C   0  0  0  0  0  0  0  0  0  0  0  0
  1  2  3  0
  2  3  1  0
  3  4  2  0
  4  5  1  0
  5  6  2  0
  6  7  1  0
  7  8  1  0
  8  9  1  0
  9 10  2  0
 10 11  1  0
 11 12  2  0
 12 13  1  0
 13 14  2  0
 14 15  1  0
 15 16  2  0
 16 17  1  0
 17 18  2  0
 12 19  1  0
  7 20  2  0
 20  3  1  0
 19  9  1  0
 18 13  1  0
M  END
>  <Compound_ID>  (348) 
CHEMBL1794061

>  <Molecule Name>  (348) 
GW627834A

>  <Molecular Weight>  (348) 
297.74

>  <AlogP>  (348) 
3.96

>  <Smiles>  (348) 
N#Cc1cccc(Nc2ncc(-c3ccccc3)o2)c1

>  <Standard Type>  (348) 
Inhibition

>  <Standard Relation>  (348) 
'='

>  <Standard Units>  (348) 
%

>  <Standard Value>  (348) 
-0.14

>  <Assay ChEMBL ID>  (348) 
CHEMBL1962175

>  <Assay Description>  (348) 
GSK_PKIS: SYK mean inhibition at 1 uM [Nanosyn]

>  <BAO Format ID>  (348) 
BAO_0000357

>  <BAO Label>  (348) 
single protein format

>  <Assay Organism>  (348) 
None

>  <Target ChEMBL ID>  (348) 
CHEMBL2599

>  <Target Name>  (348) 
Tyrosine-protein kinase SYK

>  <Target Organism>  (348) 
Homo sapiens

>  <Target Type>  (348) 
SINGLE PROTEIN

>  <Document ChEMBL ID>  (348) 
CHEMBL1961873

>  <Source Description>  (348) 
GSK Published Kinase Inhibitor Set

>  <Document Journal>  (348) 
nan

>  <Document Year>  (348) 
nan

>  <Active>  (348) 
0.0

>  <bits>  (348) 
<rdkit.DataStructs.cDataStructs.ExplicitBitVect object at 0x00000193F33E3370>

>  <Group>  (348) 
G2

$$$$

     RDKit          2D

 25 28  0  0  0  0  0  0  0  0999 V2000
    1.5000    0.0000    0.0000 C   0  0  0  0  0  0  0  0  0  0  0  0
    0.7500   -1.2990    0.0000 C   0  0  0  0  0  0  0  0  0  0  0  0
   -0.7500   -1.2990    0.0000 N   0  0  0  0  0  0  0  0  0  0  0  0
   -1.5000    0.0000    0.0000 N   0  0  0  0  0  0  0  0  0  0  0  0
   -2.9672    0.3119    0.0000 N   0  0  0  0  0  0  0  0  0  0  0  0
   -3.1240    1.8037    0.0000 C   0  0  0  0  0  0  0  0  0  0  0  0
   -1.7537    2.4138    0.0000 C   0  0  0  0  0  0  0  0  0  0  0  0
   -1.4418    3.8810    0.0000 C   0  0  0  0  0  0  0  0  0  0  0  0
   -0.0152    4.3445    0.0000 C   0  0  0  0  0  0  0  0  0  0  0  0
    0.2966    5.8117    0.0000 C   0  0  0  0  0  0  0  0  0  0  0  0
   -0.8181    6.8154    0.0000 N   0  0  0  0  0  0  0  0  0  0  0  0
   -2.2447    6.3519    0.0000 C   0  0  0  0  0  0  0  0  0  0  0  0
   -3.3594    7.3556    0.0000 N   0  0  0  0  0  0  0  0  0  0  0  0
   -3.0475    8.8228    0.0000 C   0  0  0  0  0  0  0  0  0  0  0  0
   -4.1622    9.8265    0.0000 C   0  0  0  0  0  0  0  0  0  0  0  0
   -3.8504   11.2937    0.0000 C   0  0  0  0  0  0  0  0  0  0  0  0
   -4.9651   12.2974    0.0000 N   0  0  0  0  0  0  0  0  0  0  0  0
   -4.6532   13.7646    0.0000 C   0  0  0  0  0  0  0  0  0  0  0  0
   -5.7679   14.7683    0.0000 C   0  0  0  0  0  0  0  0  0  0  0  0
   -7.1945   14.3048    0.0000 O   0  0  0  0  0  0  0  0  0  0  0  0
   -7.5064   12.8376    0.0000 C   0  0  0  0  0  0  0  0  0  0  0  0
   -6.3917   11.8339    0.0000 C   0  0  0  0  0  0  0  0  0  0  0  0
   -2.5565    4.8847    0.0000 N   0  0  0  0  0  0  0  0  0  0  0  0
   -0.7500    1.2990    0.0000 C   0  0  0  0  0  0  0  0  0  0  0  0
    0.7500    1.2990    0.0000 C   0  0  0  0  0  0  0  0  0  0  0  0
  1  2  1  0
  2  3  2  0
  3  4  1  0
  4  5  1  0
  5  6  2  0
  6  7  1  0
  7  8  1  0
  8  9  2  0
  9 10  1  0
 10 11  2  0
 11 12  1  0
 12 13  1  0
 13 14  1  0
 14 15  1  0
 15 16  1  0
 16 17  1  0
 17 18  1  0
 18 19  1  0
 19 20  1  0
 20 21  1  0
 21 22  1  0
 12 23  2  0
  7 24  2  0
 24 25  1  0
 25  1  2  0
 24  4  1  0
 23  8  1  0
 22 17  1  0
M  END
>  <Compound_ID>  (349) 
CHEMBL524901

>  <Molecule Name>  (349) 
GW683109X

>  <Molecular Weight>  (349) 
339.4

>  <AlogP>  (349) 
1.32

>  <Smiles>  (349) 
c1cnn2ncc(-c3ccnc(NCCCN4CCOCC4)n3)c2c1

>  <Standard Type>  (349) 
Inhibition

>  <Standard Relation>  (349) 
'='

>  <Standard Units>  (349) 
%

>  <Standard Value>  (349) 
-6.13

>  <Assay ChEMBL ID>  (349) 
CHEMBL1962174

>  <Assay Description>  (349) 
GSK_PKIS: SYK mean inhibition at 0.1 uM [Nanosyn]

>  <BAO Format ID>  (349) 
BAO_0000357

>  <BAO Label>  (349) 
single protein format

>  <Assay Organism>  (349) 
None

>  <Target ChEMBL ID>  (349) 
CHEMBL2599

>  <Target Name>  (349) 
Tyrosine-protein kinase SYK

>  <Target Organism>  (349) 
Homo sapiens

>  <Target Type>  (349) 
SINGLE PROTEIN

>  <Document ChEMBL ID>  (349) 
CHEMBL1961873

>  <Source Description>  (349) 
GSK Published Kinase Inhibitor Set

>  <Document Journal>  (349) 
nan

>  <Document Year>  (349) 
nan

>  <Active>  (349) 
0.0

>  <bits>  (349) 
<rdkit.DataStructs.cDataStructs.ExplicitBitVect object at 0x00000193F33E3A00>

>  <Group>  (349) 
G2

$$$$

     RDKit          2D

 25 28  0  0  0  0  0  0  0  0999 V2000
    1.8478   -6.4639    0.0000 C   0  0  0  0  0  0  0  0  0  0  0  0
    2.0046   -4.9721    0.0000 C   0  0  0  0  0  0  0  0  0  0  0  0
    3.3037   -4.2221    0.0000 N   0  0  0  0  0  0  0  0  0  0  0  0
    2.9918   -2.7549    0.0000 N   0  0  0  0  0  0  0  0  0  0  0  0
    1.5000   -2.5981    0.0000 C   0  0  0  0  0  0  0  0  0  0  0  0
    0.7500   -1.2990    0.0000 C   0  0  0  0  0  0  0  0  0  0  0  0
    1.5000    0.0000    0.0000 C   0  0  0  0  0  0  0  0  0  0  0  0
    0.7500    1.2990    0.0000 C   0  0  0  0  0  0  0  0  0  0  0  0
   -0.7500    1.2990    0.0000 C   0  0  0  0  0  0  0  0  0  0  0  0
   -1.5000    0.0000    0.0000 C   0  0  0  0  0  0  0  0  0  0  0  0
   -3.0000    0.0000    0.0000 C   0  0  0  0  0  0  0  0  0  0  0  0
   -3.7500    1.2990    0.0000 C   0  0  0  0  0  0  0  0  0  0  0  0
   -5.2500    1.2990    0.0000 C   0  0  0  0  0  0  0  0  0  0  0  0
   -6.0000    0.0000    0.0000 C   0  0  0  0  0  0  0  0  0  0  0  0
   -7.5000    0.0000    0.0000 C   0  0  0  0  0  0  0  0  0  0  0  0
   -8.2500   -1.2990    0.0000 O   0  0  0  0  0  0  0  0  0  0  0  0
   -8.2500    1.2990    0.0000 N   0  0  0  0  0  0  0  0  0  0  0  0
   -9.7500    1.2990    0.0000 C   0  0  0  0  0  0  0  0  0  0  0  0
  -10.5000    2.5981    0.0000 C   0  0  0  0  0  0  0  0  0  0  0  0
  -11.7990    3.3481    0.0000 C   0  0  0  0  0  0  0  0  0  0  0  0
  -10.5000    4.0981    0.0000 C   0  0  0  0  0  0  0  0  0  0  0  0
   -5.2500   -1.2990    0.0000 C   0  0  0  0  0  0  0  0  0  0  0  0
   -3.7500   -1.2990    0.0000 C   0  0  0  0  0  0  0  0  0  0  0  0
   -0.7500   -1.2990    0.0000 C   0  0  0  0  0  0  0  0  0  0  0  0
    0.8899   -3.9684    0.0000 O   0  0  0  0  0  0  0  0  0  0  0  0
  1  2  1  0
  2  3  2  0
  3  4  1  0
  4  5  2  0
  5  6  1  0
  6  7  2  0
  7  8  1  0
  8  9  2  0
  9 10  1  0
 10 11  1  0
 11 12  2  0
 12 13  1  0
 13 14  2  0
 14 15  1  0
 15 16  2  0
 15 17  1  0
 17 18  1  0
 18 19  1  0
 19 20  1  0
 20 21  1  0
 14 22  1  0
 22 23  2  0
 10 24  2  0
  5 25  1  0
 25  2  1  0
 24  6  1  0
 23 11  1  0
 21 19  1  0
M  END
>  <Compound_ID>  (350) 
CHEMBL257113

>  <Molecule Name>  (350) 
GW734508X

>  <Molecular Weight>  (350) 
333.39

>  <AlogP>  (350) 
3.85

>  <Smiles>  (350) 
Cc1nnc(-c2cccc(-c3ccc(C(=O)NCC4CC4)cc3)c2)o1

>  <Standard Type>  (350) 
Inhibition

>  <Standard Relation>  (350) 
'='

>  <Standard Units>  (350) 
%

>  <Standard Value>  (350) 
-0.72

>  <Assay ChEMBL ID>  (350) 
CHEMBL1962175

>  <Assay Description>  (350) 
GSK_PKIS: SYK mean inhibition at 1 uM [Nanosyn]

>  <BAO Format ID>  (350) 
BAO_0000357

>  <BAO Label>  (350) 
single protein format

>  <Assay Organism>  (350) 
None

>  <Target ChEMBL ID>  (350) 
CHEMBL2599

>  <Target Name>  (350) 
Tyrosine-protein kinase SYK

>  <Target Organism>  (350) 
Homo sapiens

>  <Target Type>  (350) 
SINGLE PROTEIN

>  <Document ChEMBL ID>  (350) 
CHEMBL1961873

>  <Source Description>  (350) 
GSK Published Kinase Inhibitor Set

>  <Document Journal>  (350) 
nan

>  <Document Year>  (350) 
nan

>  <Active>  (350) 
0.0

>  <bits>  (350) 
<rdkit.DataStructs.cDataStructs.ExplicitBitVect object at 0x00000193F33E3990>

>  <Group>  (350) 
G2

$$$$

     RDKit          2D

 24 27  0  0  0  0  0  0  0  0999 V2000
    3.0000    0.0000    0.0000 F   0  0  0  0  0  0  0  0  0  0  0  0
    1.5000    0.0000    0.0000 C   0  0  0  0  0  0  0  0  0  0  0  0
    0.7500   -1.2990    0.0000 C   0  0  0  0  0  0  0  0  0  0  0  0
   -0.7500   -1.2990    0.0000 C   0  0  0  0  0  0  0  0  0  0  0  0
   -1.5000    0.0000    0.0000 C   0  0  0  0  0  0  0  0  0  0  0  0
   -3.0000    0.0000    0.0000 C   0  0  0  0  0  0  0  0  0  0  0  0
   -3.7500    1.2990    0.0000 C   0  0  0  0  0  0  0  0  0  0  0  0
   -5.2500    1.2990    0.0000 C   0  0  0  0  0  0  0  0  0  0  0  0
   -6.0000    2.5981    0.0000 C   0  0  0  0  0  0  0  0  0  0  0  0
   -7.4918    2.7549    0.0000 C   0  0  0  0  0  0  0  0  0  0  0  0
   -7.8037    4.2221    0.0000 N   0  0  0  0  0  0  0  0  0  0  0  0
   -6.5046    4.9721    0.0000 N   0  0  0  0  0  0  0  0  0  0  0  0
   -5.3899    3.9684    0.0000 C   0  0  0  0  0  0  0  0  0  0  0  0
   -3.9227    4.2803    0.0000 C   0  0  0  0  0  0  0  0  0  0  0  0
   -2.9190    3.1655    0.0000 C   0  0  0  0  0  0  0  0  0  0  0  0
   -1.4518    3.4774    0.0000 C   0  0  0  0  0  0  0  0  0  0  0  0
   -0.9882    4.9040    0.0000 C   0  0  0  0  0  0  0  0  0  0  0  0
   -1.9919    6.0187    0.0000 C   0  0  0  0  0  0  0  0  0  0  0  0
   -3.4591    5.7068    0.0000 N   0  0  0  0  0  0  0  0  0  0  0  0
   -6.0000    0.0000    0.0000 C   0  0  0  0  0  0  0  0  0  0  0  0
   -5.2500   -1.2990    0.0000 C   0  0  0  0  0  0  0  0  0  0  0  0
   -3.7500   -1.2990    0.0000 N   0  0  0  0  0  0  0  0  0  0  0  0
   -0.7500    1.2990    0.0000 C   0  0  0  0  0  0  0  0  0  0  0  0
    0.7500    1.2990    0.0000 C   0  0  0  0  0  0  0  0  0  0  0  0
  1  2  1  0
  2  3  2  0
  3  4  1  0
  4  5  2  0
  5  6  1  0
  6  7  2  0
  7  8  1  0
  8  9  1  0
  9 10  2  0
 10 11  1  0
 11 12  1  0
 12 13  2  0
 13 14  1  0
 14 15  2  0
 15 16  1  0
 16 17  2  0
 17 18  1  0
 18 19  2  0
  8 20  2  0
 20 21  1  0
 21 22  2  0
  5 23  1  0
 23 24  2  0
 24  2  1  0
 22  6  1  0
 13  9  1  0
 19 14  1  0
M  END
>  <Compound_ID>  (351) 
CHEMBL381948

>  <Molecule Name>  (351) 
GW680975X

>  <Molecular Weight>  (351) 
316.34

>  <AlogP>  (351) 
4.34

>  <Smiles>  (351) 
Fc1ccc(-c2cc(-c3c[nH]nc3-c3ccccn3)ccn2)cc1

>  <Standard Type>  (351) 
Inhibition

>  <Standard Relation>  (351) 
'='

>  <Standard Units>  (351) 
%

>  <Standard Value>  (351) 
-0.94

>  <Assay ChEMBL ID>  (351) 
CHEMBL1962175

>  <Assay Description>  (351) 
GSK_PKIS: SYK mean inhibition at 1 uM [Nanosyn]

>  <BAO Format ID>  (351) 
BAO_0000357

>  <BAO Label>  (351) 
single protein format

>  <Assay Organism>  (351) 
None

>  <Target ChEMBL ID>  (351) 
CHEMBL2599

>  <Target Name>  (351) 
Tyrosine-protein kinase SYK

>  <Target Organism>  (351) 
Homo sapiens

>  <Target Type>  (351) 
SINGLE PROTEIN

>  <Document ChEMBL ID>  (351) 
CHEMBL1961873

>  <Source Description>  (351) 
GSK Published Kinase Inhibitor Set

>  <Document Journal>  (351) 
nan

>  <Document Year>  (351) 
nan

>  <Active>  (351) 
0.0

>  <bits>  (351) 
<rdkit.DataStructs.cDataStructs.ExplicitBitVect object at 0x00000193F33E2FF0>

>  <Group>  (351) 
G2

$$$$

     RDKit          2D

 43 48  0  0  0  0  0  0  0  0999 V2000
   -2.0316    4.0898    0.0000 O   0  0  0  0  0  0  0  0  0  0  0  0
   -3.1463    5.0935    0.0000 C   0  0  0  0  0  0  0  0  0  0  0  0
   -4.5729    4.6300    0.0000 N   0  0  0  0  0  0  0  0  0  0  0  0
   -4.8848    3.1627    0.0000 C   0  0  0  0  0  0  0  0  0  0  0  0
   -6.3114    2.6992    0.0000 C   0  0  0  0  0  0  0  0  0  0  0  0
   -6.6232    1.2320    0.0000 C   0  0  0  0  0  0  0  0  0  0  0  0
   -5.5085    0.2283    0.0000 C   0  0  0  0  0  0  0  0  0  0  0  0
   -4.0819    0.6918    0.0000 C   0  0  0  0  0  0  0  0  0  0  0  0
   -2.9672   -0.3119    0.0000 N   0  0  0  0  0  0  0  0  0  0  0  0
   -3.1240   -1.8037    0.0000 C   0  0  0  0  0  0  0  0  0  0  0  0
   -1.7537   -2.4138    0.0000 C   0  0  0  0  0  0  0  0  0  0  0  0
   -0.7500   -1.2990    0.0000 C   0  0  0  0  0  0  0  0  0  0  0  0
    0.7500   -1.2990    0.0000 C   0  0  0  0  0  0  0  0  0  0  0  0
    1.5000   -2.5981    0.0000 N   0  0  0  0  0  0  0  0  0  0  0  0
    3.0000   -2.5981    0.0000 C   0  0  0  0  0  0  0  0  0  0  0  0
    3.7500   -1.2990    0.0000 O   0  0  0  0  0  0  0  0  0  0  0  0
    3.7500   -3.8971    0.0000 C   0  0  0  0  0  0  0  0  0  0  0  0
    3.0000   -5.1962    0.0000 C   0  0  0  0  0  0  0  0  0  0  0  0
    3.7500   -6.4952    0.0000 C   0  0  0  0  0  0  0  0  0  0  0  0
    5.2500   -6.4952    0.0000 C   0  0  0  0  0  0  0  0  0  0  0  0
    6.0000   -5.1962    0.0000 C   0  0  0  0  0  0  0  0  0  0  0  0
    5.2500   -3.8971    0.0000 C   0  0  0  0  0  0  0  0  0  0  0  0
    1.5000    0.0000    0.0000 N   0  0  0  0  0  0  0  0  0  0  0  0
    0.7500    1.2990    0.0000 C   0  0  0  0  0  0  0  0  0  0  0  0
   -0.7500    1.2990    0.0000 C   0  0  0  0  0  0  0  0  0  0  0  0
   -1.5000    0.0000    0.0000 C   0  0  0  0  0  0  0  0  0  0  0  0
   -3.7701    2.1590    0.0000 C   0  0  0  0  0  0  0  0  0  0  0  0
   -2.8345    6.5607    0.0000 C   0  0  0  0  0  0  0  0  0  0  0  0
   -1.4079    7.0242    0.0000 C   0  0  0  0  0  0  0  0  0  0  0  0
   -1.0960    8.4915    0.0000 C   0  0  0  0  0  0  0  0  0  0  0  0
   -2.2107    9.4952    0.0000 C   0  0  0  0  0  0  0  0  0  0  0  0
   -1.8989   10.9624    0.0000 N   0  0  0  0  0  0  0  0  0  0  0  0
   -0.4723   11.4259    0.0000 C   0  0  0  0  0  0  0  0  0  0  0  0
   -0.1604   12.8931    0.0000 C   0  0  0  0  0  0  0  0  0  0  0  0
   -1.2751   13.8968    0.0000 O   0  0  0  0  0  0  0  0  0  0  0  0
   -2.7017   13.4333    0.0000 C   0  0  0  0  0  0  0  0  0  0  0  0
   -3.0136   11.9661    0.0000 C   0  0  0  0  0  0  0  0  0  0  0  0
   -3.6373    9.0316    0.0000 C   0  0  0  0  0  0  0  0  0  0  0  0
   -4.7520   10.0353    0.0000 C   0  0  0  0  0  0  0  0  0  0  0  0
   -5.8668   11.0390    0.0000 F   0  0  0  0  0  0  0  0  0  0  0  0
   -5.7557    8.9206    0.0000 F   0  0  0  0  0  0  0  0  0  0  0  0
   -3.7483   11.1500    0.0000 F   0  0  0  0  0  0  0  0  0  0  0  0
   -3.9492    7.5644    0.0000 C   0  0  0  0  0  0  0  0  0  0  0  0
  1  2  2  0
  2  3  1  0
  3  4  1  0
  4  5  2  0
  5  6  1  0
  6  7  2  0
  7  8  1  0
  8  9  1  0
  9 10  1  0
 10 11  2  0
 11 12  1  0
 12 13  2  0
 13 14  1  0
 14 15  1  0
 15 16  2  0
 15 17  1  0
 17 18  2  0
 18 19  1  0
 19 20  2  0
 20 21  1  0
 21 22  2  0
 13 23  1  0
 23 24  2  0
 24 25  1  0
 25 26  2  0
  8 27  2  0
  2 28  1  0
 28 29  2  0
 29 30  1  0
 30 31  2  0
 31 32  1  0
 32 33  1  0
 33 34  1  0
 34 35  1  0
 35 36  1  0
 36 37  1  0
 31 38  1  0
 38 39  1  0
 39 40  1  0
 39 41  1  0
 39 42  1  0
 38 43  2  0
 27  4  1  0
 43 28  1  0
 26  9  1  0
 37 32  1  0
 26 12  1  0
 22 17  1  0
M  END
>  <Compound_ID>  (352) 
CHEMBL1084450

>  <Molecule Name>  (352) 
nan

>  <Molecular Weight>  (352) 
585.59

>  <AlogP>  (352) 
6.39

>  <Smiles>  (352) 
O=C(Nc1cccc(-n2ccc3c(NC(=O)c4ccccc4)nccc32)c1)c1ccc(N2CCOCC2)c(C(F)(F)F)c1

>  <Standard Type>  (352) 
Inhibition

>  <Standard Relation>  (352) 
'='

>  <Standard Units>  (352) 
%

>  <Standard Value>  (352) 
6.0

>  <Assay ChEMBL ID>  (352) 
CHEMBL1120369

>  <Assay Description>  (352) 
Inhibition of SYK at 1 uM

>  <BAO Format ID>  (352) 
BAO_0000357

>  <BAO Label>  (352) 
single protein format

>  <Assay Organism>  (352) 
None

>  <Target ChEMBL ID>  (352) 
CHEMBL2599

>  <Target Name>  (352) 
Tyrosine-protein kinase SYK

>  <Target Organism>  (352) 
Homo sapiens

>  <Target Type>  (352) 
SINGLE PROTEIN

>  <Document ChEMBL ID>  (352) 
CHEMBL1155511

>  <Source Description>  (352) 
Scientific Literature

>  <Document Journal>  (352) 
Bioorg Med Chem Lett

>  <Document Year>  (352) 
2010.0

>  <Active>  (352) 
0.0

>  <bits>  (352) 
<rdkit.DataStructs.cDataStructs.ExplicitBitVect object at 0x00000193F33E3C30>

>  <Group>  (352) 
G2

$$$$

     RDKit          2D

 45 50  0  0  0  0  0  0  0  0999 V2000
    7.1181  -10.4063    0.0000 O   0  0  0  0  0  0  0  0  0  0  0  0
    7.7282   -9.0360    0.0000 S   0  0  0  0  0  0  0  0  0  0  0  0
    8.3383   -7.6657    0.0000 O   0  0  0  0  0  0  0  0  0  0  0  0
    6.3579   -8.4259    0.0000 C   0  0  0  0  0  0  0  0  0  0  0  0
    6.2011   -6.9341    0.0000 C   0  0  0  0  0  0  0  0  0  0  0  0
    4.8308   -6.3240    0.0000 N   0  0  0  0  0  0  0  0  0  0  0  0
    4.6740   -4.8322    0.0000 C   0  0  0  0  0  0  0  0  0  0  0  0
    3.3037   -4.2221    0.0000 C   0  0  0  0  0  0  0  0  0  0  0  0
    2.0046   -4.9721    0.0000 C   0  0  0  0  0  0  0  0  0  0  0  0
    0.8899   -3.9684    0.0000 C   0  0  0  0  0  0  0  0  0  0  0  0
    1.5000   -2.5981    0.0000 C   0  0  0  0  0  0  0  0  0  0  0  0
    0.7500   -1.2990    0.0000 C   0  0  0  0  0  0  0  0  0  0  0  0
    1.5000    0.0000    0.0000 C   0  0  0  0  0  0  0  0  0  0  0  0
    0.7500    1.2990    0.0000 C   0  0  0  0  0  0  0  0  0  0  0  0
   -0.7500    1.2990    0.0000 C   0  0  0  0  0  0  0  0  0  0  0  0
   -1.5000    2.5981    0.0000 N   0  0  0  0  0  0  0  0  0  0  0  0
   -3.0000    2.5981    0.0000 C   0  0  0  0  0  0  0  0  0  0  0  0
   -3.7500    1.2990    0.0000 N   0  0  0  0  0  0  0  0  0  0  0  0
   -3.0000    0.0000    0.0000 C   0  0  0  0  0  0  0  0  0  0  0  0
   -3.7500   -1.2990    0.0000 N   0  0  0  0  0  0  0  0  0  0  0  0
   -5.2500   -1.2990    0.0000 C   0  0  0  0  0  0  0  0  0  0  0  0
   -6.0000    0.0000    0.0000 C   0  0  0  0  0  0  0  0  0  0  0  0
   -7.5000    0.0000    0.0000 C   0  0  0  0  0  0  0  0  0  0  0  0
   -8.2500   -1.2990    0.0000 C   0  0  0  0  0  0  0  0  0  0  0  0
   -9.7500   -1.2990    0.0000 O   0  0  0  0  0  0  0  0  0  0  0  0
  -10.5000    0.0000    0.0000 C   0  0  0  0  0  0  0  0  0  0  0  0
  -12.0000    0.0000    0.0000 C   0  0  0  0  0  0  0  0  0  0  0  0
  -12.7500    1.2990    0.0000 C   0  0  0  0  0  0  0  0  0  0  0  0
  -14.2500    1.2990    0.0000 C   0  0  0  0  0  0  0  0  0  0  0  0
  -15.0000    0.0000    0.0000 C   0  0  0  0  0  0  0  0  0  0  0  0
  -14.2500   -1.2990    0.0000 C   0  0  0  0  0  0  0  0  0  0  0  0
  -15.0000   -2.5981    0.0000 F   0  0  0  0  0  0  0  0  0  0  0  0
  -12.7500   -1.2990    0.0000 C   0  0  0  0  0  0  0  0  0  0  0  0
   -7.5000   -2.5981    0.0000 C   0  0  0  0  0  0  0  0  0  0  0  0
   -8.2500   -3.8971    0.0000 Cl  0  0  0  0  0  0  0  0  0  0  0  0
   -6.0000   -2.5981    0.0000 C   0  0  0  0  0  0  0  0  0  0  0  0
   -1.5000    0.0000    0.0000 C   0  0  0  0  0  0  0  0  0  0  0  0
   -0.7500   -1.2990    0.0000 C   0  0  0  0  0  0  0  0  0  0  0  0
    2.9918   -2.7549    0.0000 O   0  0  0  0  0  0  0  0  0  0  0  0
    9.0985   -9.6461    0.0000 C   0  0  0  0  0  0  0  0  0  0  0  0
    9.2553  -11.1379    0.0000 C   0  0  0  0  0  0  0  0  0  0  0  0
   10.6256  -11.7480    0.0000 C   0  0  0  0  0  0  0  0  0  0  0  0
   11.8391  -10.8663    0.0000 C   0  0  0  0  0  0  0  0  0  0  0  0
   11.6824   -9.3745    0.0000 C   0  0  0  0  0  0  0  0  0  0  0  0
   10.3120   -8.7644    0.0000 C   0  0  0  0  0  0  0  0  0  0  0  0
  1  2  2  0
  2  3  2  0
  2  4  1  0
  4  5  1  0
  5  6  1  0
  6  7  1  0
  7  8  1  0
  8  9  2  0
  9 10  1  0
 10 11  2  0
 11 12  1  0
 12 13  2  0
 13 14  1  0
 14 15  2  0
 15 16  1  0
 16 17  2  0
 17 18  1  0
 18 19  2  0
 19 20  1  0
 20 21  1  0
 21 22  2  0
 22 23  1  0
 23 24  2  0
 24 25  1  0
 25 26  1  0
 26 27  1  0
 27 28  2  0
 28 29  1  0
 29 30  2  0
 30 31  1  0
 31 32  1  0
 31 33  2  0
 24 34  1  0
 34 35  1  0
 34 36  2  0
 19 37  1  0
 37 38  2  0
 11 39  1  0
  2 40  1  0
 40 41  2  0
 41 42  1  0
 42 43  2  0
 43 44  1  0
 44 45  2  0
 39  8  1  0
 45 40  1  0
 38 12  1  0
 37 15  1  0
 36 21  1  0
 33 27  1  0
M  END
>  <Compound_ID>  (353) 
CHEMBL1909395

>  <Molecule Name>  (353) 
GW633459A

>  <Molecular Weight>  (353) 
679.6

>  <AlogP>  (353) 
7.57

>  <Smiles>  (353) 
O=S(=O)(CCNCc1ccc(-c2ccc3ncnc(Nc4ccc(OCc5cccc(F)c5)c(Cl)c4)c3c2)o1)c1ccccc1

>  <Standard Type>  (353) 
Inhibition

>  <Standard Relation>  (353) 
'='

>  <Standard Units>  (353) 
%

>  <Standard Value>  (353) 
-4.14

>  <Assay ChEMBL ID>  (353) 
CHEMBL1962175

>  <Assay Description>  (353) 
GSK_PKIS: SYK mean inhibition at 1 uM [Nanosyn]

>  <BAO Format ID>  (353) 
BAO_0000357

>  <BAO Label>  (353) 
single protein format

>  <Assay Organism>  (353) 
None

>  <Target ChEMBL ID>  (353) 
CHEMBL2599

>  <Target Name>  (353) 
Tyrosine-protein kinase SYK

>  <Target Organism>  (353) 
Homo sapiens

>  <Target Type>  (353) 
SINGLE PROTEIN

>  <Document ChEMBL ID>  (353) 
CHEMBL1961873

>  <Source Description>  (353) 
GSK Published Kinase Inhibitor Set

>  <Document Journal>  (353) 
nan

>  <Document Year>  (353) 
nan

>  <Active>  (353) 
0.0

>  <bits>  (353) 
<rdkit.DataStructs.cDataStructs.ExplicitBitVect object at 0x00000193F33E3D10>

>  <Group>  (353) 
G2

$$$$

     RDKit          2D

 33 36  0  0  0  0  0  0  0  0999 V2000
    3.0000    0.0000    0.0000 C   0  0  0  0  0  0  0  0  0  0  0  0
    1.5000    0.0000    0.0000 C   0  0  0  0  0  0  0  0  0  0  0  0
    0.7500   -1.2990    0.0000 C   0  0  0  0  0  0  0  0  0  0  0  0
   -0.7500   -1.2990    0.0000 C   0  0  0  0  0  0  0  0  0  0  0  0
   -1.5000   -2.5981    0.0000 O   0  0  0  0  0  0  0  0  0  0  0  0
   -1.5000    0.0000    0.0000 C   0  0  0  0  0  0  0  0  0  0  0  0
   -0.7500    1.2990    0.0000 C   0  0  0  0  0  0  0  0  0  0  0  0
   -1.5000    2.5981    0.0000 C   0  0  0  0  0  0  0  0  0  0  0  0
   -2.9918    2.7549    0.0000 N   0  0  0  0  0  0  0  0  0  0  0  0
   -3.3037    4.2221    0.0000 N   0  0  0  0  0  0  0  0  0  0  0  0
   -4.6740    4.8322    0.0000 C   0  0  0  0  0  0  0  0  0  0  0  0
   -4.8308    6.3240    0.0000 C   0  0  0  0  0  0  0  0  0  0  0  0
   -4.9876    7.8158    0.0000 N   0  0  0  0  0  0  0  0  0  0  0  0
   -2.0046    4.9721    0.0000 C   0  0  0  0  0  0  0  0  0  0  0  0
   -0.8899    3.9684    0.0000 C   0  0  0  0  0  0  0  0  0  0  0  0
    0.5773    4.2803    0.0000 C   0  0  0  0  0  0  0  0  0  0  0  0
    1.5810    3.1655    0.0000 C   0  0  0  0  0  0  0  0  0  0  0  0
    3.0482    3.4774    0.0000 C   0  0  0  0  0  0  0  0  0  0  0  0
    4.0519    2.3627    0.0000 N   0  0  0  0  0  0  0  0  0  0  0  0
    5.5192    2.6746    0.0000 C   0  0  0  0  0  0  0  0  0  0  0  0
    6.5229    1.5598    0.0000 C   0  0  0  0  0  0  0  0  0  0  0  0
    7.9901    1.8717    0.0000 C   0  0  0  0  0  0  0  0  0  0  0  0
    6.0593    0.1333    0.0000 O   0  0  0  0  0  0  0  0  0  0  0  0
    3.5118    4.9040    0.0000 N   0  0  0  0  0  0  0  0  0  0  0  0
    2.5081    6.0187    0.0000 C   0  0  0  0  0  0  0  0  0  0  0  0
    2.9716    7.4453    0.0000 C   0  0  0  0  0  0  0  0  0  0  0  0
    4.4388    7.7572    0.0000 C   0  0  0  0  0  0  0  0  0  0  0  0
    4.9023    9.1838    0.0000 C   0  0  0  0  0  0  0  0  0  0  0  0
    3.8986   10.2985    0.0000 C   0  0  0  0  0  0  0  0  0  0  0  0
    2.4314    9.9866    0.0000 N   0  0  0  0  0  0  0  0  0  0  0  0
    1.9679    8.5600    0.0000 C   0  0  0  0  0  0  0  0  0  0  0  0
    1.0409    5.7068    0.0000 N   0  0  0  0  0  0  0  0  0  0  0  0
    0.7500    1.2990    0.0000 C   0  0  0  0  0  0  0  0  0  0  0  0
  1  2  1  0
  2  3  2  0
  3  4  1  0
  4  5  1  0
  4  6  2  0
  6  7  1  0
  7  8  1  0
  8  9  2  0
  9 10  1  0
 10 11  1  0
 11 12  1  0
 12 13  3  0
 10 14  1  0
 14 15  2  0
 15 16  1  0
 16 17  2  0
 17 18  1  0
 18 19  1  0
 19 20  1  0
 20 21  1  0
 21 22  1  6
 21 23  1  0
 18 24  2  0
 24 25  1  0
 25 26  1  0
 26 27  2  0
 27 28  1  0
 28 29  2  0
 29 30  1  0
 30 31  2  0
 25 32  2  0
  7 33  2  0
 33  2  1  0
 15  8  1  0
 32 16  1  0
 31 26  1  0
M  END
>  <Compound_ID>  (354) 
CHEMBL560733

>  <Molecule Name>  (354) 
nan

>  <Molecular Weight>  (354) 
441.5

>  <AlogP>  (354) 
3.40

>  <Smiles>  (354) 
Cc1cc(O)cc(-c2nn(CC#N)cc2-c2cc(NC[C@H](C)O)nc(-c3cccnc3)n2)c1

>  <Standard Type>  (354) 
Inhibition

>  <Standard Relation>  (354) 
'='

>  <Standard Units>  (354) 
%

>  <Standard Value>  (354) 
8.23

>  <Assay ChEMBL ID>  (354) 
CHEMBL1055628

>  <Assay Description>  (354) 
Inhibition of SYK at 10 uM by HotSpot assay relative to control

>  <BAO Format ID>  (354) 
BAO_0000357

>  <BAO Label>  (354) 
single protein format

>  <Assay Organism>  (354) 
None

>  <Target ChEMBL ID>  (354) 
CHEMBL2599

>  <Target Name>  (354) 
Tyrosine-protein kinase SYK

>  <Target Organism>  (354) 
Homo sapiens

>  <Target Type>  (354) 
SINGLE PROTEIN

>  <Document ChEMBL ID>  (354) 
CHEMBL1153464

>  <Source Description>  (354) 
Scientific Literature

>  <Document Journal>  (354) 
Bioorg Med Chem Lett

>  <Document Year>  (354) 
2009.0

>  <Active>  (354) 
0.0

>  <bits>  (354) 
<rdkit.DataStructs.cDataStructs.ExplicitBitVect object at 0x00000193F33E34C0>

>  <Group>  (354) 
G2

$$$$

     RDKit          2D

 35 39  0  0  0  0  0  0  0  0999 V2000
   -1.2990  -10.3573    0.0000 C   0  0  0  0  0  0  0  0  0  0  0  0
    0.0000   -9.6073    0.0000 O   0  0  0  0  0  0  0  0  0  0  0  0
    0.0000   -8.1073    0.0000 C   0  0  0  0  0  0  0  0  0  0  0  0
   -1.2990   -7.3573    0.0000 C   0  0  0  0  0  0  0  0  0  0  0  0
   -1.2990   -5.8573    0.0000 C   0  0  0  0  0  0  0  0  0  0  0  0
   -0.0000   -5.1073    0.0000 C   0  0  0  0  0  0  0  0  0  0  0  0
   -0.0000   -3.6073    0.0000 C   0  0  0  0  0  0  0  0  0  0  0  0
    1.2135   -2.7256    0.0000 N   0  0  0  0  0  0  0  0  0  0  0  0
    0.7500   -1.2990    0.0000 N   0  0  0  0  0  0  0  0  0  0  0  0
    1.5000    0.0000    0.0000 N   0  0  0  0  0  0  0  0  0  0  0  0
    0.7500    1.2990    0.0000 C   0  0  0  0  0  0  0  0  0  0  0  0
   -0.7500    1.2990    0.0000 C   0  0  0  0  0  0  0  0  0  0  0  0
   -1.5000    0.0000    0.0000 C   0  0  0  0  0  0  0  0  0  0  0  0
   -0.7500   -1.2990    0.0000 C   0  0  0  0  0  0  0  0  0  0  0  0
   -1.2135   -2.7256    0.0000 C   0  0  0  0  0  0  0  0  0  0  0  0
   -2.6401   -3.1891    0.0000 C   0  0  0  0  0  0  0  0  0  0  0  0
   -3.7548   -2.1855    0.0000 C   0  0  0  0  0  0  0  0  0  0  0  0
   -5.1814   -2.6490    0.0000 C   0  0  0  0  0  0  0  0  0  0  0  0
   -5.4933   -4.1162    0.0000 N   0  0  0  0  0  0  0  0  0  0  0  0
   -4.3786   -5.1199    0.0000 C   0  0  0  0  0  0  0  0  0  0  0  0
   -4.6904   -6.5871    0.0000 N   0  0  0  0  0  0  0  0  0  0  0  0
   -6.1170   -7.0506    0.0000 C   0  0  0  0  0  0  0  0  0  0  0  0
   -7.2317   -6.0469    0.0000 C   0  0  0  0  0  0  0  0  0  0  0  0
   -8.6583   -6.5105    0.0000 C   0  0  0  0  0  0  0  0  0  0  0  0
   -8.9702   -7.9777    0.0000 C   0  0  0  0  0  0  0  0  0  0  0  0
  -10.3968   -8.4412    0.0000 Cl  0  0  0  0  0  0  0  0  0  0  0  0
   -7.8555   -8.9814    0.0000 C   0  0  0  0  0  0  0  0  0  0  0  0
   -8.1673  -10.4486    0.0000 C   0  0  0  0  0  0  0  0  0  0  0  0
   -8.4792  -11.9158    0.0000 F   0  0  0  0  0  0  0  0  0  0  0  0
   -6.7001  -10.7605    0.0000 F   0  0  0  0  0  0  0  0  0  0  0  0
   -9.6346  -10.1367    0.0000 F   0  0  0  0  0  0  0  0  0  0  0  0
   -6.4289   -8.5179    0.0000 C   0  0  0  0  0  0  0  0  0  0  0  0
   -2.9520   -4.6564    0.0000 N   0  0  0  0  0  0  0  0  0  0  0  0
    1.2990   -5.8573    0.0000 C   0  0  0  0  0  0  0  0  0  0  0  0
    1.2990   -7.3573    0.0000 C   0  0  0  0  0  0  0  0  0  0  0  0
  1  2  1  0
  2  3  1  0
  3  4  2  0
  4  5  1  0
  5  6  2  0
  6  7  1  0
  7  8  2  0
  8  9  1  0
  9 10  1  0
 10 11  2  0
 11 12  1  0
 12 13  2  0
 13 14  1  0
 14 15  2  0
 15 16  1  0
 16 17  2  0
 17 18  1  0
 18 19  2  0
 19 20  1  0
 20 21  1  0
 21 22  1  0
 22 23  2  0
 23 24  1  0
 24 25  2  0
 25 26  1  0
 25 27  1  0
 27 28  1  0
 28 29  1  0
 28 30  1  0
 28 31  1  0
 27 32  2  0
 20 33  2  0
  6 34  1  0
 34 35  2  0
 35  3  1  0
 15  7  1  0
 33 16  1  0
 14  9  1  0
 32 22  1  0
M  END
>  <Compound_ID>  (355) 
CHEMBL188794

>  <Molecule Name>  (355) 
GW829115X

>  <Molecular Weight>  (355) 
496.88

>  <AlogP>  (355) 
6.28

>  <Smiles>  (355) 
COc1ccc(-c2nn3ncccc3c2-c2ccnc(Nc3ccc(Cl)c(C(F)(F)F)c3)n2)cc1

>  <Standard Type>  (355) 
Inhibition

>  <Standard Relation>  (355) 
'='

>  <Standard Units>  (355) 
%

>  <Standard Value>  (355) 
-1.11

>  <Assay ChEMBL ID>  (355) 
CHEMBL1962175

>  <Assay Description>  (355) 
GSK_PKIS: SYK mean inhibition at 1 uM [Nanosyn]

>  <BAO Format ID>  (355) 
BAO_0000357

>  <BAO Label>  (355) 
single protein format

>  <Assay Organism>  (355) 
None

>  <Target ChEMBL ID>  (355) 
CHEMBL2599

>  <Target Name>  (355) 
Tyrosine-protein kinase SYK

>  <Target Organism>  (355) 
Homo sapiens

>  <Target Type>  (355) 
SINGLE PROTEIN

>  <Document ChEMBL ID>  (355) 
CHEMBL1961873

>  <Source Description>  (355) 
GSK Published Kinase Inhibitor Set

>  <Document Journal>  (355) 
nan

>  <Document Year>  (355) 
nan

>  <Active>  (355) 
0.0

>  <bits>  (355) 
<rdkit.DataStructs.cDataStructs.ExplicitBitVect object at 0x00000193F33E3760>

>  <Group>  (355) 
G2

$$$$

     RDKit          2D

 22 23  0  0  0  0  0  0  0  0999 V2000
    3.7500   -1.2990    0.0000 C   0  0  0  0  0  0  0  0  0  0  0  0
    3.0000    0.0000    0.0000 C   0  0  0  0  0  0  0  0  0  0  0  0
    1.5000    0.0000    0.0000 C   0  0  0  0  0  0  0  0  0  0  0  0
    0.7500   -1.2990    0.0000 C   0  0  0  0  0  0  0  0  0  0  0  0
   -0.7500   -1.2990    0.0000 C   0  0  0  0  0  0  0  0  0  0  0  0
   -1.5000    0.0000    0.0000 C   0  0  0  0  0  0  0  0  0  0  0  0
   -0.7500    1.2990    0.0000 C   0  0  0  0  0  0  0  0  0  0  0  0
   -1.5000    2.5981    0.0000 C   0  0  0  0  0  0  0  0  0  0  0  0
   -0.7500    3.8971    0.0000 C   0  0  0  0  0  0  0  0  0  0  0  0
    0.7500    1.2990    0.0000 C   0  0  0  0  0  0  0  0  0  0  0  0
    1.5000    2.5981    0.0000 C   0  0  0  0  0  0  0  0  0  0  0  0
    3.0000    2.5981    0.0000 C   0  0  0  0  0  0  0  0  0  0  0  0
    3.7500    3.8971    0.0000 C   0  0  0  0  0  0  0  0  0  0  0  0
    5.2500    3.8971    0.0000 C   0  0  0  0  0  0  0  0  0  0  0  0
    6.0000    5.1962    0.0000 N   0  0  0  0  0  0  0  0  0  0  0  0
    5.2500    6.4952    0.0000 C   0  0  0  0  0  0  0  0  0  0  0  0
    3.7500    6.4952    0.0000 C   0  0  0  0  0  0  0  0  0  0  0  0
    3.0000    7.7942    0.0000 C   0  0  0  0  0  0  0  0  0  0  0  0
    1.5000    7.7942    0.0000 O   0  0  0  0  0  0  0  0  0  0  0  0
    3.7500    9.0933    0.0000 N   0  0  0  0  0  0  0  0  0  0  0  0
    3.0000   10.3923    0.0000 C   0  0  0  0  0  0  0  0  0  0  0  0
    3.0000    5.1962    0.0000 C   0  0  0  0  0  0  0  0  0  0  0  0
  1  2  1  0
  2  3  1  0
  3  4  2  0
  4  5  1  0
  5  6  2  0
  6  7  1  0
  7  8  1  0
  8  9  1  0
  7 10  2  0
 10 11  1  0
 11 12  2  0
 12 13  1  0
 13 14  2  0
 14 15  1  0
 15 16  2  0
 16 17  1  0
 17 18  1  0
 18 19  2  0
 18 20  1  0
 20 21  1  0
 17 22  2  0
 10  3  1  0
 22 13  1  0
M  END
>  <Compound_ID>  (356) 
CHEMBL385426

>  <Molecule Name>  (356) 
GW450241X

>  <Molecular Weight>  (356) 
294.4

>  <AlogP>  (356) 
3.74

>  <Smiles>  (356) 
CCc1cccc(CC)c1/C=C/c1cncc(C(=O)NC)c1

>  <Standard Type>  (356) 
Inhibition

>  <Standard Relation>  (356) 
'='

>  <Standard Units>  (356) 
%

>  <Standard Value>  (356) 
-3.77

>  <Assay ChEMBL ID>  (356) 
CHEMBL1962174

>  <Assay Description>  (356) 
GSK_PKIS: SYK mean inhibition at 0.1 uM [Nanosyn]

>  <BAO Format ID>  (356) 
BAO_0000357

>  <BAO Label>  (356) 
single protein format

>  <Assay Organism>  (356) 
None

>  <Target ChEMBL ID>  (356) 
CHEMBL2599

>  <Target Name>  (356) 
Tyrosine-protein kinase SYK

>  <Target Organism>  (356) 
Homo sapiens

>  <Target Type>  (356) 
SINGLE PROTEIN

>  <Document ChEMBL ID>  (356) 
CHEMBL1961873

>  <Source Description>  (356) 
GSK Published Kinase Inhibitor Set

>  <Document Journal>  (356) 
nan

>  <Document Year>  (356) 
nan

>  <Active>  (356) 
0.0

>  <bits>  (356) 
<rdkit.DataStructs.cDataStructs.ExplicitBitVect object at 0x00000193F33E6880>

>  <Group>  (356) 
G2

$$$$

     RDKit          2D

 27 30  0  0  0  0  0  0  0  0999 V2000
    9.6612    4.5113    0.0000 C   0  0  0  0  0  0  0  0  0  0  0  0
    8.6575    5.6260    0.0000 C   0  0  0  0  0  0  0  0  0  0  0  0
    7.1902    5.3142    0.0000 N   0  0  0  0  0  0  0  0  0  0  0  0
    6.7267    3.8876    0.0000 C   0  0  0  0  0  0  0  0  0  0  0  0
    5.2595    3.5757    0.0000 C   0  0  0  0  0  0  0  0  0  0  0  0
    4.2558    4.6904    0.0000 C   0  0  0  0  0  0  0  0  0  0  0  0
    2.7886    4.3786    0.0000 C   0  0  0  0  0  0  0  0  0  0  0  0
    2.3250    2.9520    0.0000 C   0  0  0  0  0  0  0  0  0  0  0  0
    3.3287    1.8373    0.0000 O   0  0  0  0  0  0  0  0  0  0  0  0
    0.8578    2.6401    0.0000 N   0  0  0  0  0  0  0  0  0  0  0  0
    0.3943    1.2135    0.0000 C   0  0  0  0  0  0  0  0  0  0  0  0
    1.2760    0.0000    0.0000 N   0  0  0  0  0  0  0  0  0  0  0  0
    0.3943   -1.2135    0.0000 N   0  0  0  0  0  0  0  0  0  0  0  0
   -1.0323   -0.7500    0.0000 C   0  0  0  0  0  0  0  0  0  0  0  0
   -2.3313   -1.5000    0.0000 N   0  0  0  0  0  0  0  0  0  0  0  0
   -3.6304   -0.7500    0.0000 C   0  0  0  0  0  0  0  0  0  0  0  0
   -4.9294   -1.5000    0.0000 C   0  0  0  0  0  0  0  0  0  0  0  0
   -5.0862   -2.9918    0.0000 C   0  0  0  0  0  0  0  0  0  0  0  0
   -6.5534   -3.3037    0.0000 C   0  0  0  0  0  0  0  0  0  0  0  0
   -7.3034   -2.0046    0.0000 C   0  0  0  0  0  0  0  0  0  0  0  0
   -6.2997   -0.8899    0.0000 S   0  0  0  0  0  0  0  0  0  0  0  0
   -3.6304    0.7500    0.0000 C   0  0  0  0  0  0  0  0  0  0  0  0
   -4.9294    1.5000    0.0000 Br  0  0  0  0  0  0  0  0  0  0  0  0
   -2.3313    1.5000    0.0000 C   0  0  0  0  0  0  0  0  0  0  0  0
   -1.0323    0.7500    0.0000 C   0  0  0  0  0  0  0  0  0  0  0  0
    4.7193    6.1170    0.0000 C   0  0  0  0  0  0  0  0  0  0  0  0
    6.1865    6.4289    0.0000 C   0  0  0  0  0  0  0  0  0  0  0  0
  1  2  1  0
  2  3  1  0
  3  4  1  0
  4  5  1  0
  5  6  1  0
  6  7  1  0
  7  8  1  0
  8  9  2  0
  8 10  1  0
 10 11  1  0
 11 12  2  0
 12 13  1  0
 13 14  1  0
 14 15  2  0
 15 16  1  0
 16 17  1  0
 17 18  2  0
 18 19  1  0
 19 20  2  0
 20 21  1  0
 16 22  2  0
 22 23  1  0
 22 24  1  0
 24 25  2  0
  6 26  1  0
 26 27  1  0
 27  3  1  0
 25 11  1  0
 25 14  1  0
 21 17  1  0
M  END
>  <Compound_ID>  (357) 
CHEMBL2062290

>  <Molecule Name>  (357) 
nan

>  <Molecular Weight>  (357) 
598.48

>  <AlogP>  (357) 
4.51

>  <Smiles>  (357) 
CCN1CCC(CC(=O)Nc2n[nH]c3nc(-c4cccs4)c(Br)cc23)CC1

>  <Standard Type>  (357) 
Inhibition

>  <Standard Relation>  (357) 
'='

>  <Standard Units>  (357) 
%

>  <Standard Value>  (357) 
0.14

>  <Assay ChEMBL ID>  (357) 
CHEMBL1962175

>  <Assay Description>  (357) 
GSK_PKIS: SYK mean inhibition at 1 uM [Nanosyn]

>  <BAO Format ID>  (357) 
BAO_0000357

>  <BAO Label>  (357) 
single protein format

>  <Assay Organism>  (357) 
None

>  <Target ChEMBL ID>  (357) 
CHEMBL2599

>  <Target Name>  (357) 
Tyrosine-protein kinase SYK

>  <Target Organism>  (357) 
Homo sapiens

>  <Target Type>  (357) 
SINGLE PROTEIN

>  <Document ChEMBL ID>  (357) 
CHEMBL1961873

>  <Source Description>  (357) 
GSK Published Kinase Inhibitor Set

>  <Document Journal>  (357) 
nan

>  <Document Year>  (357) 
nan

>  <Active>  (357) 
0.0

>  <bits>  (357) 
<rdkit.DataStructs.cDataStructs.ExplicitBitVect object at 0x00000193F33E5F50>

>  <Group>  (357) 
G2

$$$$

     RDKit          2D

 37 40  0  0  0  0  0  0  0  0999 V2000
   -6.2940    7.2357    0.0000 C   0  0  0  0  0  0  0  0  0  0  0  0
   -5.1793    6.2320    0.0000 O   0  0  0  0  0  0  0  0  0  0  0  0
   -3.7527    6.6955    0.0000 C   0  0  0  0  0  0  0  0  0  0  0  0
   -3.4408    8.1628    0.0000 C   0  0  0  0  0  0  0  0  0  0  0  0
   -2.0143    8.6263    0.0000 C   0  0  0  0  0  0  0  0  0  0  0  0
   -1.7024   10.0935    0.0000 C   0  0  0  0  0  0  0  0  0  0  0  0
   -0.8995    7.6226    0.0000 C   0  0  0  0  0  0  0  0  0  0  0  0
    0.5271    8.0861    0.0000 N   0  0  0  0  0  0  0  0  0  0  0  0
    0.8389    9.5533    0.0000 C   0  0  0  0  0  0  0  0  0  0  0  0
   -0.2758   10.5570    0.0000 O   0  0  0  0  0  0  0  0  0  0  0  0
    2.2655   10.0169    0.0000 C   0  0  0  0  0  0  0  0  0  0  0  0
    2.5774   11.4841    0.0000 N   0  0  0  0  0  0  0  0  0  0  0  0
    4.0040   11.9476    0.0000 C   0  0  0  0  0  0  0  0  0  0  0  0
    1.4627   12.4878    0.0000 C   0  0  0  0  0  0  0  0  0  0  0  0
   -1.2114    6.1554    0.0000 C   0  0  0  0  0  0  0  0  0  0  0  0
   -2.6380    5.6918    0.0000 C   0  0  0  0  0  0  0  0  0  0  0  0
   -2.9499    4.2246    0.0000 N   0  0  0  0  0  0  0  0  0  0  0  0
   -1.8351    3.2209    0.0000 C   0  0  0  0  0  0  0  0  0  0  0  0
   -0.4086    3.6844    0.0000 N   0  0  0  0  0  0  0  0  0  0  0  0
    0.7062    2.6807    0.0000 C   0  0  0  0  0  0  0  0  0  0  0  0
    2.1328    3.1443    0.0000 N   0  0  0  0  0  0  0  0  0  0  0  0
    2.4446    4.6115    0.0000 C   0  0  0  0  0  0  0  0  0  0  0  0
    1.3299    5.6152    0.0000 C   0  0  0  0  0  0  0  0  0  0  0  0
    1.6418    7.0824    0.0000 C   0  0  0  0  0  0  0  0  0  0  0  0
    3.0684    7.5459    0.0000 C   0  0  0  0  0  0  0  0  0  0  0  0
    4.1831    6.5422    0.0000 C   0  0  0  0  0  0  0  0  0  0  0  0
    5.6097    7.0058    0.0000 F   0  0  0  0  0  0  0  0  0  0  0  0
    3.8712    5.0750    0.0000 C   0  0  0  0  0  0  0  0  0  0  0  0
    4.9859    4.0713    0.0000 C   0  0  0  0  0  0  0  0  0  0  0  0
    6.4125    4.5348    0.0000 N   0  0  0  0  0  0  0  0  0  0  0  0
    4.6741    2.6041    0.0000 O   0  0  0  0  0  0  0  0  0  0  0  0
    0.3943    1.2135    0.0000 C   0  0  0  0  0  0  0  0  0  0  0  0
    1.2760    0.0000    0.0000 C   0  0  0  0  0  0  0  0  0  0  0  0
    0.3943   -1.2135    0.0000 C   0  0  0  0  0  0  0  0  0  0  0  0
   -1.0323   -0.7500    0.0000 N   0  0  0  0  0  0  0  0  0  0  0  0
   -1.0323    0.7500    0.0000 C   0  0  0  0  0  0  0  0  0  0  0  0
   -2.1470    1.7537    0.0000 N   0  0  0  0  0  0  0  0  0  0  0  0
  1  2  1  0
  2  3  1  0
  3  4  2  0
  4  5  1  0
  5  6  1  0
  5  7  2  0
  7  8  1  0
  8  9  1  0
  9 10  2  0
  9 11  1  0
 11 12  1  0
 12 13  1  0
 12 14  1  0
  7 15  1  0
 15 16  2  0
 16 17  1  0
 17 18  1  0
 18 19  2  0
 19 20  1  0
 20 21  1  0
 21 22  1  0
 22 23  2  0
 23 24  1  0
 24 25  2  0
 25 26  1  0
 26 27  1  0
 26 28  2  0
 28 29  1  0
 29 30  1  0
 29 31  2  0
 20 32  2  0
 32 33  1  0
 33 34  2  0
 34 35  1  0
 35 36  1  0
 36 37  2  0
 16  3  1  0
 37 18  1  0
 28 22  1  0
 36 32  1  0
M  END
>  <Compound_ID>  (358) 
CHEMBL511765

>  <Molecule Name>  (358) 
GSK-2213727A

>  <Molecular Weight>  (358) 
506.54

>  <AlogP>  (358) 
3.50

>  <Smiles>  (358) 
COc1cc(C)c(NC(=O)CN(C)C)cc1Nc1nc(Nc2cccc(F)c2C(N)=O)c2cc[nH]c2n1

>  <Standard Type>  (358) 
Inhibition

>  <Standard Relation>  (358) 
'='

>  <Standard Units>  (358) 
%

>  <Standard Value>  (358) 
0.44

>  <Assay ChEMBL ID>  (358) 
CHEMBL1962175

>  <Assay Description>  (358) 
GSK_PKIS: SYK mean inhibition at 1 uM [Nanosyn]

>  <BAO Format ID>  (358) 
BAO_0000357

>  <BAO Label>  (358) 
single protein format

>  <Assay Organism>  (358) 
None

>  <Target ChEMBL ID>  (358) 
CHEMBL2599

>  <Target Name>  (358) 
Tyrosine-protein kinase SYK

>  <Target Organism>  (358) 
Homo sapiens

>  <Target Type>  (358) 
SINGLE PROTEIN

>  <Document ChEMBL ID>  (358) 
CHEMBL1961873

>  <Source Description>  (358) 
GSK Published Kinase Inhibitor Set

>  <Document Journal>  (358) 
nan

>  <Document Year>  (358) 
nan

>  <Active>  (358) 
0.0

>  <bits>  (358) 
<rdkit.DataStructs.cDataStructs.ExplicitBitVect object at 0x00000193F33E7BC0>

>  <Group>  (358) 
G2

$$$$

     RDKit          2D

 34 39  0  0  0  0  0  0  0  0999 V2000
   -3.0313    0.2404    0.0000 C   0  0  0  0  0  0  0  0  0  0  0  0
   -2.0276   -0.8744    0.0000 O   0  0  0  0  0  0  0  0  0  0  0  0
   -2.4911   -2.3009    0.0000 C   0  0  0  0  0  0  0  0  0  0  0  0
   -1.4874   -3.4157    0.0000 C   0  0  0  0  0  0  0  0  0  0  0  0
   -1.9509   -4.8423    0.0000 C   0  0  0  0  0  0  0  0  0  0  0  0
   -3.4182   -5.1541    0.0000 C   0  0  0  0  0  0  0  0  0  0  0  0
   -3.8817   -6.5807    0.0000 C   0  0  0  0  0  0  0  0  0  0  0  0
   -5.3083   -7.0442    0.0000 N   0  0  0  0  0  0  0  0  0  0  0  0
   -5.3083   -8.5442    0.0000 N   0  0  0  0  0  0  0  0  0  0  0  0
   -6.4230   -9.5479    0.0000 N   0  0  0  0  0  0  0  0  0  0  0  0
   -6.1111  -11.0151    0.0000 C   0  0  0  0  0  0  0  0  0  0  0  0
   -4.6845  -11.4787    0.0000 C   0  0  0  0  0  0  0  0  0  0  0  0
   -3.5698  -10.4750    0.0000 C   0  0  0  0  0  0  0  0  0  0  0  0
   -3.8817   -9.0078    0.0000 C   0  0  0  0  0  0  0  0  0  0  0  0
   -3.0000   -7.7942    0.0000 C   0  0  0  0  0  0  0  0  0  0  0  0
   -1.5000   -7.7942    0.0000 C   0  0  0  0  0  0  0  0  0  0  0  0
   -0.7500   -9.0933    0.0000 C   0  0  0  0  0  0  0  0  0  0  0  0
    0.7500   -9.0933    0.0000 C   0  0  0  0  0  0  0  0  0  0  0  0
    1.5000   -7.7942    0.0000 N   0  0  0  0  0  0  0  0  0  0  0  0
    0.7500   -6.4952    0.0000 C   0  0  0  0  0  0  0  0  0  0  0  0
    1.5000   -5.1962    0.0000 N   0  0  0  0  0  0  0  0  0  0  0  0
    0.7500   -3.8971    0.0000 C   0  0  0  0  0  0  0  0  0  0  0  0
   -0.7500   -3.8971    0.0000 C   0  0  0  0  0  0  0  0  0  0  0  0
   -1.5000   -2.5981    0.0000 C   0  0  0  0  0  0  0  0  0  0  0  0
   -0.7500   -1.2990    0.0000 C   0  0  0  0  0  0  0  0  0  0  0  0
    0.7500   -1.2990    0.0000 C   0  0  0  0  0  0  0  0  0  0  0  0
    1.5000   -2.5981    0.0000 C   0  0  0  0  0  0  0  0  0  0  0  0
    1.5000    0.0000    0.0000 O   0  0  0  0  0  0  0  0  0  0  0  0
    0.7500    1.2990    0.0000 C   0  0  0  0  0  0  0  0  0  0  0  0
   -0.7500    1.2990    0.0000 C   0  0  0  0  0  0  0  0  0  0  0  0
   -1.5000    0.0000    0.0000 O   0  0  0  0  0  0  0  0  0  0  0  0
   -0.7500   -6.4952    0.0000 N   0  0  0  0  0  0  0  0  0  0  0  0
   -4.4218   -4.0394    0.0000 C   0  0  0  0  0  0  0  0  0  0  0  0
   -3.9583   -2.6128    0.0000 C   0  0  0  0  0  0  0  0  0  0  0  0
  1  2  1  0
  2  3  1  0
  3  4  2  0
  4  5  1  0
  5  6  2  0
  6  7  1  0
  7  8  2  0
  8  9  1  0
  9 10  1  0
 10 11  2  0
 11 12  1  0
 12 13  2  0
 13 14  1  0
 14 15  2  0
 15 16  1  0
 16 17  2  0
 17 18  1  0
 18 19  2  0
 19 20  1  0
 20 21  1  0
 21 22  1  0
 22 23  2  0
 23 24  1  0
 24 25  2  0
 25 26  1  0
 26 27  2  0
 26 28  1  0
 28 29  1  0
 29 30  1  0
 30 31  1  0
 20 32  2  0
  6 33  1  0
 33 34  2  0
 34  3  1  0
 15  7  1  0
 32 16  1  0
 14  9  1  0
 27 22  1  0
 31 25  1  0
M  END
>  <Compound_ID>  (359) 
CHEMBL188257

>  <Molecule Name>  (359) 
GW827106X

>  <Molecular Weight>  (359) 
452.47

>  <AlogP>  (359) 
4.38

>  <Smiles>  (359) 
COc1ccc(-c2nn3ncccc3c2-c2ccnc(Nc3ccc4c(c3)OCCO4)n2)cc1

>  <Standard Type>  (359) 
Inhibition

>  <Standard Relation>  (359) 
'='

>  <Standard Units>  (359) 
%

>  <Standard Value>  (359) 
-0.41

>  <Assay ChEMBL ID>  (359) 
CHEMBL1962175

>  <Assay Description>  (359) 
GSK_PKIS: SYK mean inhibition at 1 uM [Nanosyn]

>  <BAO Format ID>  (359) 
BAO_0000357

>  <BAO Label>  (359) 
single protein format

>  <Assay Organism>  (359) 
None

>  <Target ChEMBL ID>  (359) 
CHEMBL2599

>  <Target Name>  (359) 
Tyrosine-protein kinase SYK

>  <Target Organism>  (359) 
Homo sapiens

>  <Target Type>  (359) 
SINGLE PROTEIN

>  <Document ChEMBL ID>  (359) 
CHEMBL1961873

>  <Source Description>  (359) 
GSK Published Kinase Inhibitor Set

>  <Document Journal>  (359) 
nan

>  <Document Year>  (359) 
nan

>  <Active>  (359) 
0.0

>  <bits>  (359) 
<rdkit.DataStructs.cDataStructs.ExplicitBitVect object at 0x00000193F33E5EE0>

>  <Group>  (359) 
G2

$$$$

     RDKit          2D

 39 43  0  0  0  0  0  0  0  0999 V2000
   -5.4969  -12.5290    0.0000 C   0  0  0  0  0  0  0  0  0  0  0  0
   -4.0051  -12.6858    0.0000 N   0  0  0  0  0  0  0  0  0  0  0  0
   -3.3950  -14.0561    0.0000 C   0  0  0  0  0  0  0  0  0  0  0  0
   -3.1235  -11.4723    0.0000 C   0  0  0  0  0  0  0  0  0  0  0  0
   -3.7336  -10.1020    0.0000 O   0  0  0  0  0  0  0  0  0  0  0  0
   -1.6317  -11.6291    0.0000 O   0  0  0  0  0  0  0  0  0  0  0  0
   -0.7500  -10.4156    0.0000 C   0  0  0  0  0  0  0  0  0  0  0  0
    0.7500  -10.4156    0.0000 C   0  0  0  0  0  0  0  0  0  0  0  0
    1.2135   -8.9890    0.0000 N   0  0  0  0  0  0  0  0  0  0  0  0
    0.0000   -8.1073    0.0000 C   0  0  0  0  0  0  0  0  0  0  0  0
   -0.0000   -6.6073    0.0000 C   0  0  0  0  0  0  0  0  0  0  0  0
   -0.0000   -5.1073    0.0000 C   0  0  0  0  0  0  0  0  0  0  0  0
   -0.0000   -3.6073    0.0000 C   0  0  0  0  0  0  0  0  0  0  0  0
    1.2135   -2.7256    0.0000 C   0  0  0  0  0  0  0  0  0  0  0  0
    0.7500   -1.2990    0.0000 C   0  0  0  0  0  0  0  0  0  0  0  0
    1.5000    0.0000    0.0000 N   0  0  0  0  0  0  0  0  0  0  0  0
    0.7500    1.2990    0.0000 C   0  0  0  0  0  0  0  0  0  0  0  0
   -0.7500    1.2990    0.0000 N   0  0  0  0  0  0  0  0  0  0  0  0
   -1.5000    0.0000    0.0000 C   0  0  0  0  0  0  0  0  0  0  0  0
   -3.0000    0.0000    0.0000 N   0  0  0  0  0  0  0  0  0  0  0  0
   -3.7500    1.2990    0.0000 C   0  0  0  0  0  0  0  0  0  0  0  0
   -3.0000    2.5981    0.0000 C   0  0  0  0  0  0  0  0  0  0  0  0
   -3.7500    3.8971    0.0000 C   0  0  0  0  0  0  0  0  0  0  0  0
   -5.2500    3.8971    0.0000 C   0  0  0  0  0  0  0  0  0  0  0  0
   -6.0000    5.1962    0.0000 O   0  0  0  0  0  0  0  0  0  0  0  0
   -5.2500    6.4952    0.0000 C   0  0  0  0  0  0  0  0  0  0  0  0
   -6.0000    7.7942    0.0000 C   0  0  0  0  0  0  0  0  0  0  0  0
   -5.2500    9.0933    0.0000 C   0  0  0  0  0  0  0  0  0  0  0  0
   -6.0000   10.3923    0.0000 C   0  0  0  0  0  0  0  0  0  0  0  0
   -7.5000   10.3923    0.0000 C   0  0  0  0  0  0  0  0  0  0  0  0
   -8.2500    9.0933    0.0000 C   0  0  0  0  0  0  0  0  0  0  0  0
   -9.7500    9.0933    0.0000 F   0  0  0  0  0  0  0  0  0  0  0  0
   -7.5000    7.7942    0.0000 C   0  0  0  0  0  0  0  0  0  0  0  0
   -6.0000    2.5981    0.0000 C   0  0  0  0  0  0  0  0  0  0  0  0
   -7.5000    2.5981    0.0000 Cl  0  0  0  0  0  0  0  0  0  0  0  0
   -5.2500    1.2990    0.0000 C   0  0  0  0  0  0  0  0  0  0  0  0
   -0.7500   -1.2990    0.0000 C   0  0  0  0  0  0  0  0  0  0  0  0
   -1.2135   -2.7256    0.0000 S   0  0  0  0  0  0  0  0  0  0  0  0
   -1.2135   -8.9890    0.0000 C   0  0  0  0  0  0  0  0  0  0  0  0
  1  2  1  0
  2  3  1  0
  2  4  1  0
  4  5  2  0
  4  6  1  0
  7  6  1  6
  7  8  1  0
  8  9  1  0
  9 10  1  0
 10 11  1  1
 11 12  3  0
 12 13  1  0
 13 14  2  0
 14 15  1  0
 15 16  2  0
 16 17  1  0
 17 18  2  0
 18 19  1  0
 19 20  1  0
 20 21  1  0
 21 22  2  0
 22 23  1  0
 23 24  2  0
 24 25  1  0
 25 26  1  0
 26 27  1  0
 27 28  2  0
 28 29  1  0
 29 30  2  0
 30 31  1  0
 31 32  1  0
 31 33  2  0
 24 34  1  0
 34 35  1  0
 34 36  2  0
 19 37  2  0
 37 38  1  0
 10 39  1  0
 39  7  1  0
 38 13  1  0
 37 15  1  0
 36 21  1  0
 33 27  1  0
M  END
>  <Compound_ID>  (360) 
CHEMBL517123

>  <Molecule Name>  (360) 
GSK-182497A

>  <Molecular Weight>  (360) 
566.06

>  <AlogP>  (360) 
5.59

>  <Smiles>  (360) 
CN(C)C(=O)O[C@H]1CN[C@H](C#Cc2cc3ncnc(Nc4ccc(OCc5cccc(F)c5)c(Cl)c4)c3s2)C1

>  <Standard Type>  (360) 
Inhibition

>  <Standard Relation>  (360) 
'='

>  <Standard Units>  (360) 
%

>  <Standard Value>  (360) 
-0.76

>  <Assay ChEMBL ID>  (360) 
CHEMBL1962175

>  <Assay Description>  (360) 
GSK_PKIS: SYK mean inhibition at 1 uM [Nanosyn]

>  <BAO Format ID>  (360) 
BAO_0000357

>  <BAO Label>  (360) 
single protein format

>  <Assay Organism>  (360) 
None

>  <Target ChEMBL ID>  (360) 
CHEMBL2599

>  <Target Name>  (360) 
Tyrosine-protein kinase SYK

>  <Target Organism>  (360) 
Homo sapiens

>  <Target Type>  (360) 
SINGLE PROTEIN

>  <Document ChEMBL ID>  (360) 
CHEMBL1961873

>  <Source Description>  (360) 
GSK Published Kinase Inhibitor Set

>  <Document Journal>  (360) 
nan

>  <Document Year>  (360) 
nan

>  <Active>  (360) 
0.0

>  <bits>  (360) 
<rdkit.DataStructs.cDataStructs.ExplicitBitVect object at 0x00000193F33E7140>

>  <Group>  (360) 
G2

$$$$

     RDKit          2D

 23 26  0  0  0  0  0  0  0  0999 V2000
   -8.0346   -3.5760    0.0000 N   0  0  0  0  0  0  0  0  0  0  0  0
   -6.9199   -4.5797    0.0000 C   0  0  0  0  0  0  0  0  0  0  0  0
   -5.4933   -4.1162    0.0000 C   0  0  0  0  0  0  0  0  0  0  0  0
   -5.1814   -2.6490    0.0000 C   0  0  0  0  0  0  0  0  0  0  0  0
   -3.7548   -2.1855    0.0000 C   0  0  0  0  0  0  0  0  0  0  0  0
   -2.6401   -3.1891    0.0000 C   0  0  0  0  0  0  0  0  0  0  0  0
   -1.2135   -2.7256    0.0000 N   0  0  0  0  0  0  0  0  0  0  0  0
   -0.0000   -3.6073    0.0000 C   0  0  0  0  0  0  0  0  0  0  0  0
   -0.0000   -5.1073    0.0000 C   0  0  0  0  0  0  0  0  0  0  0  0
    1.2135   -5.9890    0.0000 N   0  0  0  0  0  0  0  0  0  0  0  0
    0.7500   -7.4156    0.0000 O   0  0  0  0  0  0  0  0  0  0  0  0
   -0.7500   -7.4156    0.0000 N   0  0  0  0  0  0  0  0  0  0  0  0
   -1.2135   -5.9890    0.0000 C   0  0  0  0  0  0  0  0  0  0  0  0
   -2.6401   -5.5255    0.0000 N   0  0  0  0  0  0  0  0  0  0  0  0
    1.2135   -2.7256    0.0000 N   0  0  0  0  0  0  0  0  0  0  0  0
    0.7500   -1.2990    0.0000 C   0  0  0  0  0  0  0  0  0  0  0  0
    1.5000    0.0000    0.0000 C   0  0  0  0  0  0  0  0  0  0  0  0
    0.7500    1.2990    0.0000 N   0  0  0  0  0  0  0  0  0  0  0  0
   -0.7500    1.2990    0.0000 C   0  0  0  0  0  0  0  0  0  0  0  0
   -1.5000    0.0000    0.0000 C   0  0  0  0  0  0  0  0  0  0  0  0
   -0.7500   -1.2990    0.0000 C   0  0  0  0  0  0  0  0  0  0  0  0
   -2.9520   -4.6564    0.0000 C   0  0  0  0  0  0  0  0  0  0  0  0
   -4.3786   -5.1199    0.0000 C   0  0  0  0  0  0  0  0  0  0  0  0
  1  2  1  0
  2  3  1  0
  3  4  2  0
  4  5  1  0
  5  6  2  0
  6  7  1  0
  7  8  1  0
  8  9  1  0
  9 10  2  0
 10 11  1  0
 11 12  1  0
 12 13  2  0
 13 14  1  0
  8 15  2  0
 15 16  1  0
 16 17  2  0
 17 18  1  0
 18 19  2  0
 19 20  1  0
 20 21  2  0
  6 22  1  0
 22 23  2  0
 23  3  1  0
 21  7  1  0
 13  9  1  0
 21 16  1  0
M  END
>  <Compound_ID>  (361) 
CHEMBL188268

>  <Molecule Name>  (361) 
nan

>  <Molecular Weight>  (361) 
307.32

>  <AlogP>  (361) 
1.51

>  <Smiles>  (361) 
NCc1ccc(-n2c(-c3nonc3N)nc3cnccc32)cc1

>  <Standard Type>  (361) 
Inhibition

>  <Standard Relation>  (361) 
'='

>  <Standard Units>  (361) 
%

>  <Standard Value>  (361) 
-3.99

>  <Assay ChEMBL ID>  (361) 
CHEMBL1962174

>  <Assay Description>  (361) 
GSK_PKIS: SYK mean inhibition at 0.1 uM [Nanosyn]

>  <BAO Format ID>  (361) 
BAO_0000357

>  <BAO Label>  (361) 
single protein format

>  <Assay Organism>  (361) 
None

>  <Target ChEMBL ID>  (361) 
CHEMBL2599

>  <Target Name>  (361) 
Tyrosine-protein kinase SYK

>  <Target Organism>  (361) 
Homo sapiens

>  <Target Type>  (361) 
SINGLE PROTEIN

>  <Document ChEMBL ID>  (361) 
CHEMBL1961873

>  <Source Description>  (361) 
GSK Published Kinase Inhibitor Set

>  <Document Journal>  (361) 
nan

>  <Document Year>  (361) 
nan

>  <Active>  (361) 
0.0

>  <bits>  (361) 
<rdkit.DataStructs.cDataStructs.ExplicitBitVect object at 0x00000193F33E4A50>

>  <Group>  (361) 
G2

$$$$

     RDKit          2D

 24 26  0  0  0  0  0  0  0  0999 V2000
    5.0490   -3.1471    0.0000 C   0  0  0  0  0  0  0  0  0  0  0  0
    3.7500   -3.8971    0.0000 C   0  0  0  0  0  0  0  0  0  0  0  0
    2.4510   -4.6471    0.0000 C   0  0  0  0  0  0  0  0  0  0  0  0
    4.5000   -5.1962    0.0000 C   0  0  0  0  0  0  0  0  0  0  0  0
    3.0000   -2.5981    0.0000 N   0  0  0  0  0  0  0  0  0  0  0  0
    1.5000   -2.5981    0.0000 C   0  0  0  0  0  0  0  0  0  0  0  0
    0.7500   -1.2990    0.0000 C   0  0  0  0  0  0  0  0  0  0  0  0
    1.5000    0.0000    0.0000 C   0  0  0  0  0  0  0  0  0  0  0  0
    0.7500    1.2990    0.0000 C   0  0  0  0  0  0  0  0  0  0  0  0
   -0.7500    1.2990    0.0000 C   0  0  0  0  0  0  0  0  0  0  0  0
   -1.5000    2.5981    0.0000 Cl  0  0  0  0  0  0  0  0  0  0  0  0
   -1.5000    0.0000    0.0000 C   0  0  0  0  0  0  0  0  0  0  0  0
   -0.7500   -1.2990    0.0000 C   0  0  0  0  0  0  0  0  0  0  0  0
    0.7500   -3.8971    0.0000 C   0  0  0  0  0  0  0  0  0  0  0  0
   -0.7500   -3.8971    0.0000 C   0  0  0  0  0  0  0  0  0  0  0  0
   -1.5000   -5.1962    0.0000 C   0  0  0  0  0  0  0  0  0  0  0  0
   -0.7500   -6.4952    0.0000 C   0  0  0  0  0  0  0  0  0  0  0  0
   -1.5000   -7.7942    0.0000 C   0  0  0  0  0  0  0  0  0  0  0  0
   -0.8899   -9.1645    0.0000 C   0  0  0  0  0  0  0  0  0  0  0  0
   -2.0046  -10.1682    0.0000 N   0  0  0  0  0  0  0  0  0  0  0  0
   -3.3037   -9.4182    0.0000 N   0  0  0  0  0  0  0  0  0  0  0  0
   -2.9918   -7.9510    0.0000 C   0  0  0  0  0  0  0  0  0  0  0  0
    0.7500   -6.4952    0.0000 C   0  0  0  0  0  0  0  0  0  0  0  0
    1.5000   -5.1962    0.0000 C   0  0  0  0  0  0  0  0  0  0  0  0
  1  2  1  0
  2  3  1  0
  2  4  1  0
  2  5  1  0
  5  6  1  0
  6  7  1  0
  7  8  2  0
  8  9  1  0
  9 10  2  0
 10 11  1  0
 10 12  1  0
 12 13  2  0
  6 14  1  0
 14 15  2  0
 15 16  1  0
 16 17  2  0
 17 18  1  0
 18 19  1  0
 19 20  2  0
 20 21  1  0
 21 22  1  0
 17 23  1  0
 23 24  2  0
 13  7  1  0
 24 14  1  0
 22 18  2  0
M  END
>  <Compound_ID>  (362) 
CHEMBL3112595

>  <Molecule Name>  (362) 
nan

>  <Molecular Weight>  (362) 
339.87

>  <AlogP>  (362) 
5.21

>  <Smiles>  (362) 
CC(C)(C)NC(c1ccc(Cl)cc1)c1ccc(-c2cn[nH]c2)cc1

>  <Standard Type>  (362) 
Inhibition

>  <Standard Relation>  (362) 
'='

>  <Standard Units>  (362) 
%

>  <Standard Value>  (362) 
0.98

>  <Assay ChEMBL ID>  (362) 
CHEMBL3118644

>  <Assay Description>  (362) 
Inhibition of SYK (unknown origin) at 0.8 ug/ml

>  <BAO Format ID>  (362) 
BAO_0000357

>  <BAO Label>  (362) 
single protein format

>  <Assay Organism>  (362) 
Homo sapiens

>  <Target ChEMBL ID>  (362) 
CHEMBL2599

>  <Target Name>  (362) 
Tyrosine-protein kinase SYK

>  <Target Organism>  (362) 
Homo sapiens

>  <Target Type>  (362) 
SINGLE PROTEIN

>  <Document ChEMBL ID>  (362) 
CHEMBL3112393

>  <Source Description>  (362) 
Scientific Literature

>  <Document Journal>  (362) 
Eur J Med Chem

>  <Document Year>  (362) 
2014.0

>  <Active>  (362) 
0.0

>  <bits>  (362) 
<rdkit.DataStructs.cDataStructs.ExplicitBitVect object at 0x00000193F33E4120>

>  <Group>  (362) 
G2

$$$$

     RDKit          2D

 24 27  0  0  0  0  0  0  0  0999 V2000
   -9.0165    4.3002    0.0000 N   0  0  0  0  0  0  0  0  0  0  0  0
   -7.9018    3.2966    0.0000 C   0  0  0  0  0  0  0  0  0  0  0  0
   -6.7871    2.2929    0.0000 C   0  0  0  0  0  0  0  0  0  0  0  0
   -5.3605    2.7564    0.0000 C   0  0  0  0  0  0  0  0  0  0  0  0
   -4.2458    1.7527    0.0000 C   0  0  0  0  0  0  0  0  0  0  0  0
   -4.5577    0.2855    0.0000 C   0  0  0  0  0  0  0  0  0  0  0  0
   -5.9843   -0.1781    0.0000 C   0  0  0  0  0  0  0  0  0  0  0  0
   -6.2961   -1.6453    0.0000 N   0  0  0  0  0  0  0  0  0  0  0  0
   -5.1814   -2.6490    0.0000 C   0  0  0  0  0  0  0  0  0  0  0  0
   -5.4933   -4.1162    0.0000 N   0  0  0  0  0  0  0  0  0  0  0  0
   -4.3786   -5.1199    0.0000 C   0  0  0  0  0  0  0  0  0  0  0  0
   -2.9520   -4.6564    0.0000 C   0  0  0  0  0  0  0  0  0  0  0  0
   -2.6401   -3.1891    0.0000 C   0  0  0  0  0  0  0  0  0  0  0  0
   -1.2135   -2.7256    0.0000 C   0  0  0  0  0  0  0  0  0  0  0  0
   -0.0000   -3.6073    0.0000 C   0  0  0  0  0  0  0  0  0  0  0  0
    1.2135   -2.7256    0.0000 N   0  0  0  0  0  0  0  0  0  0  0  0
    0.7500   -1.2990    0.0000 N   0  0  0  0  0  0  0  0  0  0  0  0
    1.5000    0.0000    0.0000 N   0  0  0  0  0  0  0  0  0  0  0  0
    0.7500    1.2990    0.0000 C   0  0  0  0  0  0  0  0  0  0  0  0
   -0.7500    1.2990    0.0000 C   0  0  0  0  0  0  0  0  0  0  0  0
   -1.5000    0.0000    0.0000 C   0  0  0  0  0  0  0  0  0  0  0  0
   -0.7500   -1.2990    0.0000 C   0  0  0  0  0  0  0  0  0  0  0  0
   -3.7548   -2.1855    0.0000 N   0  0  0  0  0  0  0  0  0  0  0  0
   -7.0990    0.8256    0.0000 C   0  0  0  0  0  0  0  0  0  0  0  0
  1  2  3  0
  2  3  1  0
  3  4  2  0
  4  5  1  0
  5  6  2  0
  6  7  1  0
  7  8  1  0
  8  9  1  0
  9 10  2  0
 10 11  1  0
 11 12  2  0
 12 13  1  0
 13 14  1  0
 14 15  1  0
 15 16  2  0
 16 17  1  0
 17 18  1  0
 18 19  2  0
 19 20  1  0
 20 21  2  0
 21 22  1  0
 13 23  2  0
  7 24  2  0
 24  3  1  0
 23  9  1  0
 22 14  2  0
 22 17  1  0
M  END
>  <Compound_ID>  (363) 
CHEMBL495696

>  <Molecule Name>  (363) 
GW778894X

>  <Molecular Weight>  (363) 
313.32

>  <AlogP>  (363) 
2.80

>  <Smiles>  (363) 
N#Cc1cccc(Nc2nccc(-c3cnn4ncccc34)n2)c1

>  <Standard Type>  (363) 
Inhibition

>  <Standard Relation>  (363) 
'='

>  <Standard Units>  (363) 
%

>  <Standard Value>  (363) 
-11.97

>  <Assay ChEMBL ID>  (363) 
CHEMBL1962174

>  <Assay Description>  (363) 
GSK_PKIS: SYK mean inhibition at 0.1 uM [Nanosyn]

>  <BAO Format ID>  (363) 
BAO_0000357

>  <BAO Label>  (363) 
single protein format

>  <Assay Organism>  (363) 
None

>  <Target ChEMBL ID>  (363) 
CHEMBL2599

>  <Target Name>  (363) 
Tyrosine-protein kinase SYK

>  <Target Organism>  (363) 
Homo sapiens

>  <Target Type>  (363) 
SINGLE PROTEIN

>  <Document ChEMBL ID>  (363) 
CHEMBL1961873

>  <Source Description>  (363) 
GSK Published Kinase Inhibitor Set

>  <Document Journal>  (363) 
nan

>  <Document Year>  (363) 
nan

>  <Active>  (363) 
0.0

>  <bits>  (363) 
<rdkit.DataStructs.cDataStructs.ExplicitBitVect object at 0x00000193F33E6D50>

>  <Group>  (363) 
G2

$$$$

     RDKit          2D

 25 28  0  0  0  0  0  0  0  0999 V2000
   -8.6583   -6.5105    0.0000 C   0  0  0  0  0  0  0  0  0  0  0  0
   -7.2317   -6.0469    0.0000 N   0  0  0  0  0  0  0  0  0  0  0  0
   -6.9199   -4.5797    0.0000 C   0  0  0  0  0  0  0  0  0  0  0  0
   -5.4933   -4.1162    0.0000 C   0  0  0  0  0  0  0  0  0  0  0  0
   -4.3786   -5.1199    0.0000 C   0  0  0  0  0  0  0  0  0  0  0  0
   -2.9520   -4.6564    0.0000 C   0  0  0  0  0  0  0  0  0  0  0  0
   -1.8373   -5.6601    0.0000 O   0  0  0  0  0  0  0  0  0  0  0  0
   -2.6401   -3.1891    0.0000 N   0  0  0  0  0  0  0  0  0  0  0  0
   -1.2135   -2.7256    0.0000 C   0  0  0  0  0  0  0  0  0  0  0  0
   -0.0000   -3.6073    0.0000 N   0  0  0  0  0  0  0  0  0  0  0  0
    1.2135   -2.7256    0.0000 N   0  0  0  0  0  0  0  0  0  0  0  0
    0.7500   -1.2990    0.0000 C   0  0  0  0  0  0  0  0  0  0  0  0
    1.5000    0.0000    0.0000 N   0  0  0  0  0  0  0  0  0  0  0  0
    0.7500    1.2990    0.0000 N   0  0  0  0  0  0  0  0  0  0  0  0
   -0.7500    1.2990    0.0000 C   0  0  0  0  0  0  0  0  0  0  0  0
   -1.5000    2.5981    0.0000 C   0  0  0  0  0  0  0  0  0  0  0  0
   -0.7500    3.8971    0.0000 C   0  0  0  0  0  0  0  0  0  0  0  0
   -1.5000    5.1962    0.0000 C   0  0  0  0  0  0  0  0  0  0  0  0
   -3.0000    5.1962    0.0000 C   0  0  0  0  0  0  0  0  0  0  0  0
   -3.7500    3.8971    0.0000 C   0  0  0  0  0  0  0  0  0  0  0  0
   -3.0000    2.5981    0.0000 C   0  0  0  0  0  0  0  0  0  0  0  0
   -1.5000    0.0000    0.0000 C   0  0  0  0  0  0  0  0  0  0  0  0
   -0.7500   -1.2990    0.0000 C   0  0  0  0  0  0  0  0  0  0  0  0
   -4.6904   -6.5871    0.0000 C   0  0  0  0  0  0  0  0  0  0  0  0
   -6.1170   -7.0506    0.0000 C   0  0  0  0  0  0  0  0  0  0  0  0
  1  2  1  0
  2  3  1  0
  3  4  1  0
  4  5  1  0
  5  6  1  0
  6  7  2  0
  6  8  1  0
  8  9  1  0
  9 10  2  0
 10 11  1  0
 11 12  1  0
 12 13  2  0
 13 14  1  0
 14 15  2  0
 15 16  1  0
 16 17  2  0
 17 18  1  0
 18 19  2  0
 19 20  1  0
 20 21  2  0
 15 22  1  0
 22 23  2  0
  5 24  1  0
 24 25  1  0
 25  2  1  0
 23  9  1  0
 23 12  1  0
 21 16  1  0
M  END
>  <Compound_ID>  (364) 
CHEMBL1909344

>  <Molecule Name>  (364) 
nan

>  <Molecular Weight>  (364) 
372.86

>  <AlogP>  (364) 
2.30

>  <Smiles>  (364) 
CN1CCC(C(=O)Nc2n[nH]c3nnc(-c4ccccc4)cc23)CC1

>  <Standard Type>  (364) 
Inhibition

>  <Standard Relation>  (364) 
'='

>  <Standard Units>  (364) 
%

>  <Standard Value>  (364) 
-1.15

>  <Assay ChEMBL ID>  (364) 
CHEMBL1962175

>  <Assay Description>  (364) 
GSK_PKIS: SYK mean inhibition at 1 uM [Nanosyn]

>  <BAO Format ID>  (364) 
BAO_0000357

>  <BAO Label>  (364) 
single protein format

>  <Assay Organism>  (364) 
None

>  <Target ChEMBL ID>  (364) 
CHEMBL2599

>  <Target Name>  (364) 
Tyrosine-protein kinase SYK

>  <Target Organism>  (364) 
Homo sapiens

>  <Target Type>  (364) 
SINGLE PROTEIN

>  <Document ChEMBL ID>  (364) 
CHEMBL1961873

>  <Source Description>  (364) 
GSK Published Kinase Inhibitor Set

>  <Document Journal>  (364) 
nan

>  <Document Year>  (364) 
nan

>  <Active>  (364) 
0.0

>  <bits>  (364) 
<rdkit.DataStructs.cDataStructs.ExplicitBitVect object at 0x00000193F33E4AC0>

>  <Group>  (364) 
G2

$$$$

     RDKit          2D

 29 32  0  0  0  0  0  0  0  0999 V2000
    3.0000    0.0000    0.0000 C   0  0  0  0  0  0  0  0  0  0  0  0
    1.5000    0.0000    0.0000 N   0  0  0  0  0  0  0  0  0  0  0  0
    0.7500   -1.2990    0.0000 C   0  0  0  0  0  0  0  0  0  0  0  0
   -0.7500   -1.2990    0.0000 C   0  0  0  0  0  0  0  0  0  0  0  0
   -1.5000    0.0000    0.0000 C   0  0  0  0  0  0  0  0  0  0  0  0
   -3.0000    0.0000    0.0000 N   0  0  0  0  0  0  0  0  0  0  0  0
   -3.8817   -1.2135    0.0000 C   0  0  0  0  0  0  0  0  0  0  0  0
   -5.3083   -0.7500    0.0000 N   0  0  0  0  0  0  0  0  0  0  0  0
   -5.3083    0.7500    0.0000 C   0  0  0  0  0  0  0  0  0  0  0  0
   -6.5218    1.6317    0.0000 C   0  0  0  0  0  0  0  0  0  0  0  0
   -6.3650    3.1235    0.0000 C   0  0  0  0  0  0  0  0  0  0  0  0
   -7.5785    4.0051    0.0000 C   0  0  0  0  0  0  0  0  0  0  0  0
   -8.9488    3.3950    0.0000 C   0  0  0  0  0  0  0  0  0  0  0  0
  -10.1624    4.2767    0.0000 F   0  0  0  0  0  0  0  0  0  0  0  0
   -9.1056    1.9033    0.0000 C   0  0  0  0  0  0  0  0  0  0  0  0
   -7.8921    1.0216    0.0000 C   0  0  0  0  0  0  0  0  0  0  0  0
   -3.8817    1.2135    0.0000 C   0  0  0  0  0  0  0  0  0  0  0  0
   -3.4182    2.6401    0.0000 C   0  0  0  0  0  0  0  0  0  0  0  0
   -1.9509    2.9520    0.0000 C   0  0  0  0  0  0  0  0  0  0  0  0
   -1.4874    4.3786    0.0000 C   0  0  0  0  0  0  0  0  0  0  0  0
   -2.4911    5.4933    0.0000 N   0  0  0  0  0  0  0  0  0  0  0  0
   -3.9583    5.1814    0.0000 C   0  0  0  0  0  0  0  0  0  0  0  0
   -4.9620    6.2961    0.0000 N   0  0  0  0  0  0  0  0  0  0  0  0
   -4.4985    7.7227    0.0000 C   0  0  0  0  0  0  0  0  0  0  0  0
   -5.5022    8.8374    0.0000 C   0  0  0  0  0  0  0  0  0  0  0  0
   -5.0387   10.2640    0.0000 O   0  0  0  0  0  0  0  0  0  0  0  0
   -4.4218    3.7548    0.0000 N   0  0  0  0  0  0  0  0  0  0  0  0
   -0.7500    1.2990    0.0000 C   0  0  0  0  0  0  0  0  0  0  0  0
    0.7500    1.2990    0.0000 C   0  0  0  0  0  0  0  0  0  0  0  0
  1  2  1  0
  2  3  1  0
  3  4  1  0
  4  5  1  0
  5  6  1  0
  6  7  1  0
  7  8  2  0
  8  9  1  0
  9 10  1  0
 10 11  2  0
 11 12  1  0
 12 13  2  0
 13 14  1  0
 13 15  1  0
 15 16  2  0
  9 17  2  0
 17 18  1  0
 18 19  2  0
 19 20  1  0
 20 21  2  0
 21 22  1  0
 22 23  1  0
 23 24  1  0
 24 25  1  0
 25 26  1  0
 22 27  2  0
  5 28  1  0
 28 29  1  0
 29  2  1  0
 17  6  1  0
 27 18  1  0
 16 10  1  0
M  END
>  <Compound_ID>  (365) 
CHEMBL330422

>  <Molecule Name>  (365) 
nan

>  <Molecular Weight>  (365) 
396.47

>  <AlogP>  (365) 
2.82

>  <Smiles>  (365) 
CN1CCC(n2cnc(-c3ccc(F)cc3)c2-c2ccnc(NCCO)n2)CC1

>  <Standard Type>  (365) 
Inhibition

>  <Standard Relation>  (365) 
'='

>  <Standard Units>  (365) 
%

>  <Standard Value>  (365) 
-1.12

>  <Assay ChEMBL ID>  (365) 
CHEMBL1962175

>  <Assay Description>  (365) 
GSK_PKIS: SYK mean inhibition at 1 uM [Nanosyn]

>  <BAO Format ID>  (365) 
BAO_0000357

>  <BAO Label>  (365) 
single protein format

>  <Assay Organism>  (365) 
None

>  <Target ChEMBL ID>  (365) 
CHEMBL2599

>  <Target Name>  (365) 
Tyrosine-protein kinase SYK

>  <Target Organism>  (365) 
Homo sapiens

>  <Target Type>  (365) 
SINGLE PROTEIN

>  <Document ChEMBL ID>  (365) 
CHEMBL1961873

>  <Source Description>  (365) 
GSK Published Kinase Inhibitor Set

>  <Document Journal>  (365) 
nan

>  <Document Year>  (365) 
nan

>  <Active>  (365) 
0.0

>  <bits>  (365) 
<rdkit.DataStructs.cDataStructs.ExplicitBitVect object at 0x00000193F33E6420>

>  <Group>  (365) 
G2

$$$$

     RDKit          2D

 25 28  0  0  0  0  0  0  0  0999 V2000
    3.0000   -2.5981    0.0000 O   0  0  0  0  0  0  0  0  0  0  0  0
    1.5000   -2.5981    0.0000 C   0  0  0  0  0  0  0  0  0  0  0  0
    0.7500   -3.8971    0.0000 N   0  0  0  0  0  0  0  0  0  0  0  0
    1.5000   -5.1962    0.0000 C   0  0  0  0  0  0  0  0  0  0  0  0
    0.7500   -6.4952    0.0000 C   0  0  0  0  0  0  0  0  0  0  0  0
    0.7500   -7.9952    0.0000 C   0  0  0  0  0  0  0  0  0  0  0  0
   -0.5490   -7.2452    0.0000 C   0  0  0  0  0  0  0  0  0  0  0  0
    0.7500   -1.2990    0.0000 C   0  0  0  0  0  0  0  0  0  0  0  0
    1.5000    0.0000    0.0000 C   0  0  0  0  0  0  0  0  0  0  0  0
    0.7500    1.2990    0.0000 C   0  0  0  0  0  0  0  0  0  0  0  0
   -0.7500    1.2990    0.0000 C   0  0  0  0  0  0  0  0  0  0  0  0
   -1.5000    2.5981    0.0000 C   0  0  0  0  0  0  0  0  0  0  0  0
   -0.7500    3.8971    0.0000 C   0  0  0  0  0  0  0  0  0  0  0  0
   -1.5000    5.1962    0.0000 C   0  0  0  0  0  0  0  0  0  0  0  0
   -3.0000    5.1962    0.0000 C   0  0  0  0  0  0  0  0  0  0  0  0
   -3.7500    3.8971    0.0000 C   0  0  0  0  0  0  0  0  0  0  0  0
   -5.2500    3.8971    0.0000 C   0  0  0  0  0  0  0  0  0  0  0  0
   -6.0000    2.5981    0.0000 O   0  0  0  0  0  0  0  0  0  0  0  0
   -6.0000    5.1962    0.0000 N   0  0  0  0  0  0  0  0  0  0  0  0
   -7.5000    5.1962    0.0000 C   0  0  0  0  0  0  0  0  0  0  0  0
   -8.7990    4.4462    0.0000 C   0  0  0  0  0  0  0  0  0  0  0  0
   -8.7990    5.9462    0.0000 C   0  0  0  0  0  0  0  0  0  0  0  0
   -3.0000    2.5981    0.0000 C   0  0  0  0  0  0  0  0  0  0  0  0
   -1.5000    0.0000    0.0000 C   0  0  0  0  0  0  0  0  0  0  0  0
   -0.7500   -1.2990    0.0000 C   0  0  0  0  0  0  0  0  0  0  0  0
  1  2  2  0
  2  3  1  0
  3  4  1  0
  4  5  1  0
  5  6  1  0
  6  7  1  0
  2  8  1  0
  8  9  2  0
  9 10  1  0
 10 11  2  0
 11 12  1  0
 12 13  2  0
 13 14  1  0
 14 15  2  0
 15 16  1  0
 16 17  1  0
 17 18  2  0
 17 19  1  0
 19 20  1  0
 20 21  1  0
 21 22  1  0
 16 23  2  0
 11 24  1  0
 24 25  2  0
  7  5  1  0
 25  8  1  0
 23 12  1  0
 22 20  1  0
M  END
>  <Compound_ID>  (366) 
CHEMBL479038

>  <Molecule Name>  (366) 
GW806776X

>  <Molecular Weight>  (366) 
334.42

>  <AlogP>  (366) 
3.39

>  <Smiles>  (366) 
O=C(NCC1CC1)c1ccc(-c2cccc(C(=O)NC3CC3)c2)cc1

>  <Standard Type>  (366) 
Inhibition

>  <Standard Relation>  (366) 
'='

>  <Standard Units>  (366) 
%

>  <Standard Value>  (366) 
-0.53

>  <Assay ChEMBL ID>  (366) 
CHEMBL1962174

>  <Assay Description>  (366) 
GSK_PKIS: SYK mean inhibition at 0.1 uM [Nanosyn]

>  <BAO Format ID>  (366) 
BAO_0000357

>  <BAO Label>  (366) 
single protein format

>  <Assay Organism>  (366) 
None

>  <Target ChEMBL ID>  (366) 
CHEMBL2599

>  <Target Name>  (366) 
Tyrosine-protein kinase SYK

>  <Target Organism>  (366) 
Homo sapiens

>  <Target Type>  (366) 
SINGLE PROTEIN

>  <Document ChEMBL ID>  (366) 
CHEMBL1961873

>  <Source Description>  (366) 
GSK Published Kinase Inhibitor Set

>  <Document Journal>  (366) 
nan

>  <Document Year>  (366) 
nan

>  <Active>  (366) 
0.0

>  <bits>  (366) 
<rdkit.DataStructs.cDataStructs.ExplicitBitVect object at 0x00000193F33E7F40>

>  <Group>  (366) 
G2

$$$$

     RDKit          2D

 22 25  0  0  0  0  0  0  0  0999 V2000
    4.0519   -4.9608    0.0000 C   0  0  0  0  0  0  0  0  0  0  0  0
    3.0482   -6.0755    0.0000 C   0  0  0  0  0  0  0  0  0  0  0  0
    3.5118   -7.5021    0.0000 C   0  0  0  0  0  0  0  0  0  0  0  0
    2.5081   -8.6168    0.0000 C   0  0  0  0  0  0  0  0  0  0  0  0
    1.0409   -8.3049    0.0000 C   0  0  0  0  0  0  0  0  0  0  0  0
    0.5773   -6.8783    0.0000 C   0  0  0  0  0  0  0  0  0  0  0  0
   -0.8899   -6.5665    0.0000 C   0  0  0  0  0  0  0  0  0  0  0  0
   -2.0046   -7.5702    0.0000 N   0  0  0  0  0  0  0  0  0  0  0  0
   -3.3037   -6.8202    0.0000 N   0  0  0  0  0  0  0  0  0  0  0  0
   -2.9918   -5.3529    0.0000 C   0  0  0  0  0  0  0  0  0  0  0  0
   -1.5000   -5.1962    0.0000 C   0  0  0  0  0  0  0  0  0  0  0  0
   -0.7500   -3.8971    0.0000 C   0  0  0  0  0  0  0  0  0  0  0  0
    0.7500   -3.8971    0.0000 C   0  0  0  0  0  0  0  0  0  0  0  0
    1.5000   -2.5981    0.0000 C   0  0  0  0  0  0  0  0  0  0  0  0
    0.7500   -1.2990    0.0000 C   0  0  0  0  0  0  0  0  0  0  0  0
    1.5000    0.0000    0.0000 N   0  0  0  0  0  0  0  0  0  0  0  0
    0.7500    1.2990    0.0000 C   0  0  0  0  0  0  0  0  0  0  0  0
   -0.7500    1.2990    0.0000 C   0  0  0  0  0  0  0  0  0  0  0  0
   -1.5000    0.0000    0.0000 C   0  0  0  0  0  0  0  0  0  0  0  0
   -0.7500   -1.2990    0.0000 C   0  0  0  0  0  0  0  0  0  0  0  0
   -1.5000   -2.5981    0.0000 N   0  0  0  0  0  0  0  0  0  0  0  0
    1.5810   -5.7636    0.0000 N   0  0  0  0  0  0  0  0  0  0  0  0
  1  2  1  0
  2  3  2  0
  3  4  1  0
  4  5  2  0
  5  6  1  0
  6  7  1  0
  7  8  2  0
  8  9  1  0
  9 10  1  0
 10 11  2  0
 11 12  1  0
 12 13  2  0
 13 14  1  0
 14 15  2  0
 15 16  1  0
 16 17  2  0
 17 18  1  0
 18 19  2  0
 19 20  1  0
 20 21  2  0
  6 22  2  0
 22  2  1  0
 11  7  1  0
 21 12  1  0
 20 15  1  0
M  END
>  <Compound_ID>  (367) 
CHEMBL185238

>  <Molecule Name>  (367) 
GW786460X

>  <Molecular Weight>  (367) 
287.33

>  <AlogP>  (367) 
3.39

>  <Smiles>  (367) 
Cc1cccc(-c2n[nH]cc2-c2ccc3ncccc3n2)n1

>  <Standard Type>  (367) 
Inhibition

>  <Standard Relation>  (367) 
'='

>  <Standard Units>  (367) 
%

>  <Standard Value>  (367) 
-0.38

>  <Assay ChEMBL ID>  (367) 
CHEMBL1962175

>  <Assay Description>  (367) 
GSK_PKIS: SYK mean inhibition at 1 uM [Nanosyn]

>  <BAO Format ID>  (367) 
BAO_0000357

>  <BAO Label>  (367) 
single protein format

>  <Assay Organism>  (367) 
None

>  <Target ChEMBL ID>  (367) 
CHEMBL2599

>  <Target Name>  (367) 
Tyrosine-protein kinase SYK

>  <Target Organism>  (367) 
Homo sapiens

>  <Target Type>  (367) 
SINGLE PROTEIN

>  <Document ChEMBL ID>  (367) 
CHEMBL1961873

>  <Source Description>  (367) 
GSK Published Kinase Inhibitor Set

>  <Document Journal>  (367) 
nan

>  <Document Year>  (367) 
nan

>  <Active>  (367) 
0.0

>  <bits>  (367) 
<rdkit.DataStructs.cDataStructs.ExplicitBitVect object at 0x00000193F33E6110>

>  <Group>  (367) 
G2

$$$$

     RDKit          2D

 32 35  0  0  0  0  0  0  0  0999 V2000
   -6.4268    0.3631    0.0000 C   0  0  0  0  0  0  0  0  0  0  0  0
   -6.1149    1.8303    0.0000 C   0  0  0  0  0  0  0  0  0  0  0  0
   -7.2296    2.8340    0.0000 C   0  0  0  0  0  0  0  0  0  0  0  0
   -6.9177    4.3013    0.0000 C   0  0  0  0  0  0  0  0  0  0  0  0
   -5.4912    4.7648    0.0000 C   0  0  0  0  0  0  0  0  0  0  0  0
   -4.3764    3.7611    0.0000 C   0  0  0  0  0  0  0  0  0  0  0  0
   -4.6883    2.2939    0.0000 C   0  0  0  0  0  0  0  0  0  0  0  0
   -3.5736    1.2902    0.0000 N   0  0  0  0  0  0  0  0  0  0  0  0
   -2.1470    1.7537    0.0000 C   0  0  0  0  0  0  0  0  0  0  0  0
   -1.8351    3.2209    0.0000 N   0  0  0  0  0  0  0  0  0  0  0  0
   -0.4086    3.6844    0.0000 C   0  0  0  0  0  0  0  0  0  0  0  0
   -0.0967    5.1517    0.0000 C   0  0  0  0  0  0  0  0  0  0  0  0
    1.3299    5.6152    0.0000 C   0  0  0  0  0  0  0  0  0  0  0  0
    1.6418    7.0824    0.0000 F   0  0  0  0  0  0  0  0  0  0  0  0
    2.4446    4.6115    0.0000 C   0  0  0  0  0  0  0  0  0  0  0  0
    3.8712    5.0750    0.0000 N   0  0  0  0  0  0  0  0  0  0  0  0
    4.9859    4.0713    0.0000 C   0  0  0  0  0  0  0  0  0  0  0  0
    4.1831    6.5422    0.0000 C   0  0  0  0  0  0  0  0  0  0  0  0
    3.0684    7.5459    0.0000 O   0  0  0  0  0  0  0  0  0  0  0  0
    5.6097    7.0058    0.0000 C   0  0  0  0  0  0  0  0  0  0  0  0
    5.9215    8.4730    0.0000 C   0  0  0  0  0  0  0  0  0  0  0  0
    7.3481    8.9365    0.0000 C   0  0  0  0  0  0  0  0  0  0  0  0
    7.6600   10.4037    0.0000 N   0  0  0  0  0  0  0  0  0  0  0  0
    9.0866   10.8673    0.0000 C   0  0  0  0  0  0  0  0  0  0  0  0
    6.5453   11.4074    0.0000 C   0  0  0  0  0  0  0  0  0  0  0  0
    2.1328    3.1443    0.0000 C   0  0  0  0  0  0  0  0  0  0  0  0
    0.7062    2.6807    0.0000 C   0  0  0  0  0  0  0  0  0  0  0  0
    0.3943    1.2135    0.0000 N   0  0  0  0  0  0  0  0  0  0  0  0
    1.2760    0.0000    0.0000 C   0  0  0  0  0  0  0  0  0  0  0  0
    0.3943   -1.2135    0.0000 N   0  0  0  0  0  0  0  0  0  0  0  0
   -1.0323   -0.7500    0.0000 C   0  0  0  0  0  0  0  0  0  0  0  0
   -1.0323    0.7500    0.0000 C   0  0  0  0  0  0  0  0  0  0  0  0
  1  2  1  0
  2  3  2  0
  3  4  1  0
  4  5  2  0
  5  6  1  0
  6  7  2  0
  7  8  1  0
  8  9  1  0
  9 10  2  0
 10 11  1  0
 11 12  2  0
 12 13  1  0
 13 14  1  0
 13 15  2  0
 15 16  1  0
 16 17  1  0
 16 18  1  0
 18 19  2  0
 18 20  1  0
 20 21  2  0
 21 22  1  0
 22 23  1  0
 23 24  1  0
 23 25  1  0
 15 26  1  0
 26 27  2  0
 27 28  1  0
 28 29  1  0
 29 30  2  0
 30 31  1  0
 31 32  2  0
  7  2  1  0
 32  9  1  0
 27 11  1  0
 32 28  1  0
M  END
>  <Compound_ID>  (368) 
CHEMBL1916891

>  <Molecule Name>  (368) 
nan

>  <Molecular Weight>  (368) 
432.5

>  <AlogP>  (368) 
4.15

>  <Smiles>  (368) 
Cc1ccccc1Nc1nc2cc(F)c(N(C)C(=O)/C=C/CN(C)C)cc2n2cncc12

>  <Standard Type>  (368) 
Inhibition

>  <Standard Relation>  (368) 
'='

>  <Standard Units>  (368) 
%

>  <Standard Value>  (368) 
0.0

>  <Assay ChEMBL ID>  (368) 
CHEMBL1919472

>  <Assay Description>  (368) 
Inhibition of SYK relative to control

>  <BAO Format ID>  (368) 
BAO_0000357

>  <BAO Label>  (368) 
single protein format

>  <Assay Organism>  (368) 
None

>  <Target ChEMBL ID>  (368) 
CHEMBL2599

>  <Target Name>  (368) 
Tyrosine-protein kinase SYK

>  <Target Organism>  (368) 
Homo sapiens

>  <Target Type>  (368) 
SINGLE PROTEIN

>  <Document ChEMBL ID>  (368) 
CHEMBL1914368

>  <Source Description>  (368) 
Scientific Literature

>  <Document Journal>  (368) 
Bioorg Med Chem Lett

>  <Document Year>  (368) 
2011.0

>  <Active>  (368) 
0.0

>  <bits>  (368) 
<rdkit.DataStructs.cDataStructs.ExplicitBitVect object at 0x00000193F33E7DF0>

>  <Group>  (368) 
G2

$$$$

     RDKit          2D

 28 31  0  0  0  0  0  0  0  0999 V2000
    7.7776   -0.5604    0.0000 C   0  0  0  0  0  0  0  0  0  0  0  0
    7.3141   -1.9870    0.0000 C   0  0  0  0  0  0  0  0  0  0  0  0
    5.8875   -2.4505    0.0000 C   0  0  0  0  0  0  0  0  0  0  0  0
    5.8875   -3.9505    0.0000 C   0  0  0  0  0  0  0  0  0  0  0  0
    4.6740   -4.8322    0.0000 C   0  0  0  0  0  0  0  0  0  0  0  0
    3.3037   -4.2221    0.0000 C   0  0  0  0  0  0  0  0  0  0  0  0
    2.0046   -4.9721    0.0000 C   0  0  0  0  0  0  0  0  0  0  0  0
    1.8478   -6.4639    0.0000 O   0  0  0  0  0  0  0  0  0  0  0  0
    0.8899   -3.9684    0.0000 N   0  0  0  0  0  0  0  0  0  0  0  0
    1.5000   -2.5981    0.0000 N   0  0  0  0  0  0  0  0  0  0  0  0
    0.7500   -1.2990    0.0000 C   0  0  0  0  0  0  0  0  0  0  0  0
    1.5000    0.0000    0.0000 C   0  0  0  0  0  0  0  0  0  0  0  0
    0.7500    1.2990    0.0000 C   0  0  0  0  0  0  0  0  0  0  0  0
   -0.7500    1.2990    0.0000 C   0  0  0  0  0  0  0  0  0  0  0  0
   -1.5000    0.0000    0.0000 C   0  0  0  0  0  0  0  0  0  0  0  0
   -0.7500   -1.2990    0.0000 C   0  0  0  0  0  0  0  0  0  0  0  0
    2.9918   -2.7549    0.0000 C   0  0  0  0  0  0  0  0  0  0  0  0
    3.9955   -1.6402    0.0000 O   0  0  0  0  0  0  0  0  0  0  0  0
    7.3141   -4.4140    0.0000 C   0  0  0  0  0  0  0  0  0  0  0  0
    7.7776   -5.8406    0.0000 C   0  0  0  0  0  0  0  0  0  0  0  0
    8.1958   -3.2005    0.0000 N   0  0  0  0  0  0  0  0  0  0  0  0
    9.6958   -3.2005    0.0000 C   0  0  0  0  0  0  0  0  0  0  0  0
   10.4458   -4.4996    0.0000 C   0  0  0  0  0  0  0  0  0  0  0  0
   11.9458   -4.4996    0.0000 C   0  0  0  0  0  0  0  0  0  0  0  0
   12.6958   -3.2005    0.0000 C   0  0  0  0  0  0  0  0  0  0  0  0
   11.9458   -1.9015    0.0000 C   0  0  0  0  0  0  0  0  0  0  0  0
   12.6958   -0.6024    0.0000 O   0  0  0  0  0  0  0  0  0  0  0  0
   10.4458   -1.9015    0.0000 C   0  0  0  0  0  0  0  0  0  0  0  0
  1  2  1  0
  2  3  2  0
  3  4  1  0
  4  5  1  0
  5  6  2  0
  6  7  1  0
  7  8  2  0
  7  9  1  0
  9 10  1  0
 10 11  1  0
 11 12  2  0
 12 13  1  0
 13 14  2  0
 14 15  1  0
 15 16  2  0
 10 17  1  0
 17 18  2  0
  4 19  2  0
 19 20  1  0
 19 21  1  0
 21 22  1  0
 22 23  2  0
 23 24  1  0
 24 25  2  0
 25 26  1  0
 26 27  1  0
 26 28  2  0
 21  2  1  0
 28 22  1  0
 17  6  1  0
 16 11  1  0
M  END
>  <Compound_ID>  (369) 
CHEMBL1580295

>  <Molecule Name>  (369) 
nan

>  <Molecular Weight>  (369) 
373.41

>  <AlogP>  (369) 
3.26

>  <Smiles>  (369) 
Cc1cc(/C=C2/C(=O)NN(c3ccccc3)C2=O)c(C)n1-c1cccc(O)c1

>  <Standard Type>  (369) 
Inhibition

>  <Standard Relation>  (369) 
'='

>  <Standard Units>  (369) 
%

>  <Standard Value>  (369) 
16.0

>  <Assay ChEMBL ID>  (369) 
CHEMBL3119789

>  <Assay Description>  (369) 
Inhibition of SYK (unknown origin) at 20 uM by radioactive ATP method

>  <BAO Format ID>  (369) 
BAO_0000357

>  <BAO Label>  (369) 
single protein format

>  <Assay Organism>  (369) 
Homo sapiens

>  <Target ChEMBL ID>  (369) 
CHEMBL2599

>  <Target Name>  (369) 
Tyrosine-protein kinase SYK

>  <Target Organism>  (369) 
Homo sapiens

>  <Target Type>  (369) 
SINGLE PROTEIN

>  <Document ChEMBL ID>  (369) 
CHEMBL3112544

>  <Source Description>  (369) 
Scientific Literature

>  <Document Journal>  (369) 
Bioorg Med Chem Lett

>  <Document Year>  (369) 
2013.0

>  <Active>  (369) 
0.0

>  <bits>  (369) 
<rdkit.DataStructs.cDataStructs.ExplicitBitVect object at 0x00000193F33E5690>

>  <Group>  (369) 
G2

$$$$

     RDKit          2D

 26 28  0  0  0  0  0  0  0  0999 V2000
    5.2500   -1.2990    0.0000 C   0  0  0  0  0  0  0  0  0  0  0  0
    3.7500   -1.2990    0.0000 C   0  0  0  0  0  0  0  0  0  0  0  0
    3.0000   -2.5981    0.0000 C   0  0  0  0  0  0  0  0  0  0  0  0
    3.0000    0.0000    0.0000 C   0  0  0  0  0  0  0  0  0  0  0  0
    1.5000    0.0000    0.0000 C   0  0  0  0  0  0  0  0  0  0  0  0
    0.7500   -1.2990    0.0000 C   0  0  0  0  0  0  0  0  0  0  0  0
   -0.7500   -1.2990    0.0000 C   0  0  0  0  0  0  0  0  0  0  0  0
   -1.5000    0.0000    0.0000 C   0  0  0  0  0  0  0  0  0  0  0  0
   -0.7500    1.2990    0.0000 C   0  0  0  0  0  0  0  0  0  0  0  0
    0.7500    1.2990    0.0000 C   0  0  0  0  0  0  0  0  0  0  0  0
    1.2135    2.7256    0.0000 C   0  0  0  0  0  0  0  0  0  0  0  0
    2.6401    3.1891    0.0000 N   0  0  0  0  0  0  0  0  0  0  0  0
    2.9520    4.6564    0.0000 N   0  0  0  0  0  0  0  0  0  0  0  0
    4.3786    5.1199    0.0000 C   0  0  0  0  0  0  0  0  0  0  0  0
    5.4933    4.1162    0.0000 C   0  0  0  0  0  0  0  0  0  0  0  0
    6.9199    4.5797    0.0000 C   0  0  0  0  0  0  0  0  0  0  0  0
    7.2317    6.0469    0.0000 C   0  0  0  0  0  0  0  0  0  0  0  0
    8.6583    6.5105    0.0000 S   0  0  0  0  0  0  0  0  0  0  0  0
   10.0849    6.9740    0.0000 N   0  0  0  0  0  0  0  0  0  0  0  0
    9.1218    5.0839    0.0000 O   0  0  0  0  0  0  0  0  0  0  0  0
    8.1948    7.9371    0.0000 O   0  0  0  0  0  0  0  0  0  0  0  0
    6.1170    7.0506    0.0000 C   0  0  0  0  0  0  0  0  0  0  0  0
    4.6904    6.5871    0.0000 C   0  0  0  0  0  0  0  0  0  0  0  0
   -0.0000    3.6073    0.0000 C   0  0  0  0  0  0  0  0  0  0  0  0
   -0.0000    5.1073    0.0000 O   0  0  0  0  0  0  0  0  0  0  0  0
   -1.2135    2.7256    0.0000 N   0  0  0  0  0  0  0  0  0  0  0  0
  1  2  1  0
  2  3  1  0
  2  4  2  0
  4  5  1  0
  5  6  2  0
  6  7  1  0
  7  8  2  0
  8  9  1  0
  9 10  2  0
 10 11  1  0
 11 12  2  0
 12 13  1  0
 13 14  1  0
 14 15  2  0
 15 16  1  0
 16 17  2  0
 17 18  1  0
 18 19  1  0
 18 20  2  0
 18 21  2  0
 17 22  1  0
 22 23  2  0
 11 24  1  0
 24 25  2  0
 24 26  1  0
 10  5  1  0
 23 14  1  0
 26  9  1  0
M  END
>  <Compound_ID>  (370) 
CHEMBL270544

>  <Molecule Name>  (370) 
GW396574X

>  <Molecular Weight>  (370) 
370.43

>  <AlogP>  (370) 
2.53

>  <Smiles>  (370) 
CC(C)=Cc1cccc2c1/C(=N/Nc1ccc(S(N)(=O)=O)cc1)C(=O)N2

>  <Standard Type>  (370) 
Inhibition

>  <Standard Relation>  (370) 
'='

>  <Standard Units>  (370) 
%

>  <Standard Value>  (370) 
-2.03

>  <Assay ChEMBL ID>  (370) 
CHEMBL1962175

>  <Assay Description>  (370) 
GSK_PKIS: SYK mean inhibition at 1 uM [Nanosyn]

>  <BAO Format ID>  (370) 
BAO_0000357

>  <BAO Label>  (370) 
single protein format

>  <Assay Organism>  (370) 
None

>  <Target ChEMBL ID>  (370) 
CHEMBL2599

>  <Target Name>  (370) 
Tyrosine-protein kinase SYK

>  <Target Organism>  (370) 
Homo sapiens

>  <Target Type>  (370) 
SINGLE PROTEIN

>  <Document ChEMBL ID>  (370) 
CHEMBL1961873

>  <Source Description>  (370) 
GSK Published Kinase Inhibitor Set

>  <Document Journal>  (370) 
nan

>  <Document Year>  (370) 
nan

>  <Active>  (370) 
0.0

>  <bits>  (370) 
<rdkit.DataStructs.cDataStructs.ExplicitBitVect object at 0x00000193F33E7680>

>  <Group>  (370) 
G2

$$$$

     RDKit          2D

 25 27  0  0  0  0  0  0  0  0999 V2000
    3.0000    0.0000    0.0000 C   0  0  0  0  0  0  0  0  0  0  0  0
    1.5000    0.0000    0.0000 C   0  0  0  0  0  0  0  0  0  0  0  0
    0.7500   -1.2990    0.0000 C   0  0  0  0  0  0  0  0  0  0  0  0
   -0.7500   -1.2990    0.0000 C   0  0  0  0  0  0  0  0  0  0  0  0
   -1.5000    0.0000    0.0000 C   0  0  0  0  0  0  0  0  0  0  0  0
   -3.0000    0.0000    0.0000 N   0  0  0  0  0  0  0  0  0  0  0  0
   -3.7500    1.2990    0.0000 C   0  0  0  0  0  0  0  0  0  0  0  0
   -3.0000    2.5981    0.0000 C   0  0  0  0  0  0  0  0  0  0  0  0
   -3.7500    3.8971    0.0000 C   0  0  0  0  0  0  0  0  0  0  0  0
   -5.2500    3.8971    0.0000 N   0  0  0  0  0  0  0  0  0  0  0  0
   -6.0000    2.5981    0.0000 C   0  0  0  0  0  0  0  0  0  0  0  0
   -7.5000    2.5981    0.0000 N   0  0  0  0  0  0  0  0  0  0  0  0
   -8.2500    3.8971    0.0000 C   0  0  0  0  0  0  0  0  0  0  0  0
   -7.5000    5.1962    0.0000 C   0  0  0  0  0  0  0  0  0  0  0  0
   -8.2500    6.4952    0.0000 C   0  0  0  0  0  0  0  0  0  0  0  0
   -9.7500    6.4952    0.0000 C   0  0  0  0  0  0  0  0  0  0  0  0
  -10.5000    5.1962    0.0000 C   0  0  0  0  0  0  0  0  0  0  0  0
  -12.0000    5.1962    0.0000 C   0  0  0  0  0  0  0  0  0  0  0  0
  -12.7500    6.4952    0.0000 N   0  0  0  0  0  0  0  0  0  0  0  0
  -12.7500    3.8971    0.0000 O   0  0  0  0  0  0  0  0  0  0  0  0
   -9.7500    3.8971    0.0000 C   0  0  0  0  0  0  0  0  0  0  0  0
   -5.2500    1.2990    0.0000 N   0  0  0  0  0  0  0  0  0  0  0  0
   -0.7500    1.2990    0.0000 C   0  0  0  0  0  0  0  0  0  0  0  0
    0.7500    1.2990    0.0000 C   0  0  0  0  0  0  0  0  0  0  0  0
    1.5000    2.5981    0.0000 O   0  0  0  0  0  0  0  0  0  0  0  0
  1  2  1  0
  2  3  2  0
  3  4  1  0
  4  5  2  0
  5  6  1  0
  6  7  1  0
  7  8  2  0
  8  9  1  0
  9 10  2  0
 10 11  1  0
 11 12  1  0
 12 13  1  0
 13 14  2  0
 14 15  1  0
 15 16  2  0
 16 17  1  0
 17 18  1  0
 18 19  1  0
 18 20  2  0
 17 21  2  0
 11 22  2  0
  5 23  1  0
 23 24  2  0
 24 25  1  0
 24  2  1  0
 22  7  1  0
 21 13  1  0
M  END
>  <Compound_ID>  (371) 
CHEMBL1909381

>  <Molecule Name>  (371) 
GW575808A

>  <Molecular Weight>  (371) 
371.83

>  <AlogP>  (371) 
3.08

>  <Smiles>  (371) 
Cc1ccc(Nc2ccnc(Nc3cccc(C(N)=O)c3)n2)cc1O

>  <Standard Type>  (371) 
Inhibition

>  <Standard Relation>  (371) 
'='

>  <Standard Units>  (371) 
%

>  <Standard Value>  (371) 
14.24

>  <Assay ChEMBL ID>  (371) 
CHEMBL1962175

>  <Assay Description>  (371) 
GSK_PKIS: SYK mean inhibition at 1 uM [Nanosyn]

>  <BAO Format ID>  (371) 
BAO_0000357

>  <BAO Label>  (371) 
single protein format

>  <Assay Organism>  (371) 
None

>  <Target ChEMBL ID>  (371) 
CHEMBL2599

>  <Target Name>  (371) 
Tyrosine-protein kinase SYK

>  <Target Organism>  (371) 
Homo sapiens

>  <Target Type>  (371) 
SINGLE PROTEIN

>  <Document ChEMBL ID>  (371) 
CHEMBL1961873

>  <Source Description>  (371) 
GSK Published Kinase Inhibitor Set

>  <Document Journal>  (371) 
nan

>  <Document Year>  (371) 
nan

>  <Active>  (371) 
0.0

>  <bits>  (371) 
<rdkit.DataStructs.cDataStructs.ExplicitBitVect object at 0x00000193F33E5310>

>  <Group>  (371) 
G2

$$$$

     RDKit          2D

 28 31  0  0  0  0  0  0  0  0999 V2000
    4.5000  -10.3923    0.0000 N   0  0  0  0  0  0  0  0  0  0  0  0
    3.7500   -9.0933    0.0000 S   0  0  0  0  0  0  0  0  0  0  0  0
    2.4510   -9.8433    0.0000 O   0  0  0  0  0  0  0  0  0  0  0  0
    5.0490   -8.3433    0.0000 O   0  0  0  0  0  0  0  0  0  0  0  0
    3.0000   -7.7942    0.0000 C   0  0  0  0  0  0  0  0  0  0  0  0
    1.5000   -7.7942    0.0000 C   0  0  0  0  0  0  0  0  0  0  0  0
    0.7500   -6.4952    0.0000 C   0  0  0  0  0  0  0  0  0  0  0  0
    1.5000   -5.1962    0.0000 C   0  0  0  0  0  0  0  0  0  0  0  0
    0.7500   -3.8971    0.0000 C   0  0  0  0  0  0  0  0  0  0  0  0
    1.5000   -2.5981    0.0000 C   0  0  0  0  0  0  0  0  0  0  0  0
    0.7500   -1.2990    0.0000 C   0  0  0  0  0  0  0  0  0  0  0  0
    1.5000    0.0000    0.0000 C   0  0  0  0  0  0  0  0  0  0  0  0
    0.7500    1.2990    0.0000 C   0  0  0  0  0  0  0  0  0  0  0  0
   -0.7500    1.2990    0.0000 N   0  0  0  0  0  0  0  0  0  0  0  0
   -1.5000    0.0000    0.0000 C   0  0  0  0  0  0  0  0  0  0  0  0
   -0.7500   -1.2990    0.0000 C   0  0  0  0  0  0  0  0  0  0  0  0
   -1.5000   -2.5981    0.0000 C   0  0  0  0  0  0  0  0  0  0  0  0
   -0.7500   -3.8971    0.0000 C   0  0  0  0  0  0  0  0  0  0  0  0
   -1.5000   -5.1962    0.0000 O   0  0  0  0  0  0  0  0  0  0  0  0
   -3.0000   -5.1962    0.0000 C   0  0  0  0  0  0  0  0  0  0  0  0
   -3.7500   -6.4952    0.0000 C   0  0  0  0  0  0  0  0  0  0  0  0
   -5.2500   -6.4952    0.0000 C   0  0  0  0  0  0  0  0  0  0  0  0
   -6.0000   -7.7942    0.0000 C   0  0  0  0  0  0  0  0  0  0  0  0
   -5.2500   -9.0933    0.0000 C   0  0  0  0  0  0  0  0  0  0  0  0
   -3.7500   -9.0933    0.0000 C   0  0  0  0  0  0  0  0  0  0  0  0
   -3.0000   -7.7942    0.0000 C   0  0  0  0  0  0  0  0  0  0  0  0
    3.0000   -5.1962    0.0000 C   0  0  0  0  0  0  0  0  0  0  0  0
    3.7500   -6.4952    0.0000 C   0  0  0  0  0  0  0  0  0  0  0  0
  1  2  1  0
  2  3  2  0
  2  4  2  0
  2  5  1  0
  5  6  2  0
  6  7  1  0
  7  8  2  0
  8  9  1  0
  9 10  2  0
 10 11  1  0
 11 12  2  0
 12 13  1  0
 13 14  2  0
 14 15  1  0
 15 16  2  0
 16 17  1  0
 17 18  2  0
 18 19  1  0
 19 20  1  0
 20 21  1  0
 21 22  2  0
 22 23  1  0
 23 24  2  0
 24 25  1  0
 25 26  2  0
  8 27  1  0
 27 28  2  0
 28  5  1  0
 18  9  1  0
 26 21  1  0
 16 11  1  0
M  END
>  <Compound_ID>  (372) 
CHEMBL483748

>  <Molecule Name>  (372) 
GSK-953913A

>  <Molecular Weight>  (372) 
390.46

>  <AlogP>  (372) 
4.13

>  <Smiles>  (372) 
NS(=O)(=O)c1ccc(-c2cc3ccncc3cc2OCc2ccccc2)cc1

>  <Standard Type>  (372) 
Inhibition

>  <Standard Relation>  (372) 
'='

>  <Standard Units>  (372) 
%

>  <Standard Value>  (372) 
0.64

>  <Assay ChEMBL ID>  (372) 
CHEMBL1962175

>  <Assay Description>  (372) 
GSK_PKIS: SYK mean inhibition at 1 uM [Nanosyn]

>  <BAO Format ID>  (372) 
BAO_0000357

>  <BAO Label>  (372) 
single protein format

>  <Assay Organism>  (372) 
None

>  <Target ChEMBL ID>  (372) 
CHEMBL2599

>  <Target Name>  (372) 
Tyrosine-protein kinase SYK

>  <Target Organism>  (372) 
Homo sapiens

>  <Target Type>  (372) 
SINGLE PROTEIN

>  <Document ChEMBL ID>  (372) 
CHEMBL1961873

>  <Source Description>  (372) 
GSK Published Kinase Inhibitor Set

>  <Document Journal>  (372) 
nan

>  <Document Year>  (372) 
nan

>  <Active>  (372) 
0.0

>  <bits>  (372) 
<rdkit.DataStructs.cDataStructs.ExplicitBitVect object at 0x00000193F33E4510>

>  <Group>  (372) 
G2

$$$$

     RDKit          2D

 20 21  0  0  0  0  0  0  0  0999 V2000
    5.2500   -1.2990    0.0000 C   0  0  0  0  0  0  0  0  0  0  0  0
    3.7500   -1.2990    0.0000 N   0  0  0  0  0  0  0  0  0  0  0  0
    3.0000    0.0000    0.0000 C   0  0  0  0  0  0  0  0  0  0  0  0
    3.7500    1.2990    0.0000 O   0  0  0  0  0  0  0  0  0  0  0  0
    1.5000    0.0000    0.0000 C   0  0  0  0  0  0  0  0  0  0  0  0
    0.7500   -1.2990    0.0000 C   0  0  0  0  0  0  0  0  0  0  0  0
   -0.7500   -1.2990    0.0000 N   0  0  0  0  0  0  0  0  0  0  0  0
   -1.5000    0.0000    0.0000 C   0  0  0  0  0  0  0  0  0  0  0  0
   -0.7500    1.2990    0.0000 C   0  0  0  0  0  0  0  0  0  0  0  0
   -1.5000    2.5981    0.0000 C   0  0  0  0  0  0  0  0  0  0  0  0
   -0.7500    3.8971    0.0000 C   0  0  0  0  0  0  0  0  0  0  0  0
   -1.5000    5.1962    0.0000 C   0  0  0  0  0  0  0  0  0  0  0  0
   -0.7500    6.4952    0.0000 C   0  0  0  0  0  0  0  0  0  0  0  0
    0.7500    6.4952    0.0000 C   0  0  0  0  0  0  0  0  0  0  0  0
   -1.5000    7.7942    0.0000 C   0  0  0  0  0  0  0  0  0  0  0  0
   -3.0000    7.7942    0.0000 C   0  0  0  0  0  0  0  0  0  0  0  0
   -3.7500    6.4952    0.0000 C   0  0  0  0  0  0  0  0  0  0  0  0
   -3.0000    5.1962    0.0000 C   0  0  0  0  0  0  0  0  0  0  0  0
   -3.7500    3.8971    0.0000 C   0  0  0  0  0  0  0  0  0  0  0  0
    0.7500    1.2990    0.0000 C   0  0  0  0  0  0  0  0  0  0  0  0
  1  2  1  0
  2  3  1  0
  3  4  2  0
  3  5  1  0
  5  6  2  0
  6  7  1  0
  7  8  2  0
  8  9  1  0
  9 10  1  0
 10 11  2  0
 11 12  1  0
 12 13  2  0
 13 14  1  0
 13 15  1  0
 15 16  2  0
 16 17  1  0
 17 18  2  0
 18 19  1  0
  9 20  2  0
 20  5  1  0
 18 12  1  0
M  END
>  <Compound_ID>  (373) 
CHEMBL218859

>  <Molecule Name>  (373) 
GW445012X

>  <Molecular Weight>  (373) 
266.34

>  <AlogP>  (373) 
3.23

>  <Smiles>  (373) 
CNC(=O)c1cncc(/C=C/c2c(C)cccc2C)c1

>  <Standard Type>  (373) 
Inhibition

>  <Standard Relation>  (373) 
'='

>  <Standard Units>  (373) 
%

>  <Standard Value>  (373) 
0.05

>  <Assay ChEMBL ID>  (373) 
CHEMBL1962174

>  <Assay Description>  (373) 
GSK_PKIS: SYK mean inhibition at 0.1 uM [Nanosyn]

>  <BAO Format ID>  (373) 
BAO_0000357

>  <BAO Label>  (373) 
single protein format

>  <Assay Organism>  (373) 
None

>  <Target ChEMBL ID>  (373) 
CHEMBL2599

>  <Target Name>  (373) 
Tyrosine-protein kinase SYK

>  <Target Organism>  (373) 
Homo sapiens

>  <Target Type>  (373) 
SINGLE PROTEIN

>  <Document ChEMBL ID>  (373) 
CHEMBL1961873

>  <Source Description>  (373) 
GSK Published Kinase Inhibitor Set

>  <Document Journal>  (373) 
nan

>  <Document Year>  (373) 
nan

>  <Active>  (373) 
0.0

>  <bits>  (373) 
<rdkit.DataStructs.cDataStructs.ExplicitBitVect object at 0x00000193F33E52A0>

>  <Group>  (373) 
G2

$$$$

     RDKit          2D

 26 29  0  0  0  0  0  0  0  0999 V2000
   -9.1645    1.7722    0.0000 C   0  0  0  0  0  0  0  0  0  0  0  0
   -8.0498    0.7685    0.0000 O   0  0  0  0  0  0  0  0  0  0  0  0
   -6.6232    1.2320    0.0000 C   0  0  0  0  0  0  0  0  0  0  0  0
   -6.3114    2.6992    0.0000 C   0  0  0  0  0  0  0  0  0  0  0  0
   -4.8848    3.1627    0.0000 C   0  0  0  0  0  0  0  0  0  0  0  0
   -3.7701    2.1590    0.0000 C   0  0  0  0  0  0  0  0  0  0  0  0
   -4.0819    0.6918    0.0000 C   0  0  0  0  0  0  0  0  0  0  0  0
   -2.9672   -0.3119    0.0000 N   0  0  0  0  0  0  0  0  0  0  0  0
   -3.1240   -1.8037    0.0000 C   0  0  0  0  0  0  0  0  0  0  0  0
   -1.7537   -2.4138    0.0000 N   0  0  0  0  0  0  0  0  0  0  0  0
   -0.7500   -1.2990    0.0000 C   0  0  0  0  0  0  0  0  0  0  0  0
    0.7500   -1.2990    0.0000 C   0  0  0  0  0  0  0  0  0  0  0  0
    1.5000   -2.5981    0.0000 N   0  0  0  0  0  0  0  0  0  0  0  0
    3.0000   -2.5981    0.0000 N   0  0  0  0  0  0  0  0  0  0  0  0
    3.7500   -3.8971    0.0000 C   0  0  0  0  0  0  0  0  0  0  0  0
    5.2500   -3.8971    0.0000 C   0  0  0  0  0  0  0  0  0  0  0  0
    6.0000   -5.1962    0.0000 C   0  0  0  0  0  0  0  0  0  0  0  0
    7.5000   -5.1962    0.0000 C   0  0  0  0  0  0  0  0  0  0  0  0
    8.2500   -3.8971    0.0000 N   0  0  0  0  0  0  0  0  0  0  0  0
    7.5000   -2.5981    0.0000 C   0  0  0  0  0  0  0  0  0  0  0  0
    6.0000   -2.5981    0.0000 C   0  0  0  0  0  0  0  0  0  0  0  0
    1.5000    0.0000    0.0000 N   0  0  0  0  0  0  0  0  0  0  0  0
    0.7500    1.2990    0.0000 C   0  0  0  0  0  0  0  0  0  0  0  0
   -0.7500    1.2990    0.0000 N   0  0  0  0  0  0  0  0  0  0  0  0
   -1.5000    0.0000    0.0000 C   0  0  0  0  0  0  0  0  0  0  0  0
   -5.5085    0.2283    0.0000 C   0  0  0  0  0  0  0  0  0  0  0  0
  1  2  1  0
  2  3  1  0
  3  4  2  0
  4  5  1  0
  5  6  2  0
  6  7  1  0
  7  8  1  0
  8  9  1  0
  9 10  2  0
 10 11  1  0
 11 12  2  0
 12 13  1  0
 13 14  1  0
 14 15  2  0
 15 16  1  0
 16 17  2  0
 17 18  1  0
 18 19  2  0
 19 20  1  0
 20 21  2  0
 12 22  1  0
 22 23  2  0
 23 24  1  0
 24 25  2  0
  7 26  2  0
 26  3  1  0
 25  8  1  0
 25 11  1  0
 21 16  1  0
M  END
>  <Compound_ID>  (374) 
CHEMBL204934

>  <Molecule Name>  (374) 
GW813360X

>  <Molecular Weight>  (374) 
345.37

>  <AlogP>  (374) 
2.67

>  <Smiles>  (374) 
COc1cccc(-n2cnc3c(N/N=C/c4ccncc4)ncnc32)c1

>  <Standard Type>  (374) 
Inhibition

>  <Standard Relation>  (374) 
'='

>  <Standard Units>  (374) 
%

>  <Standard Value>  (374) 
1.9

>  <Assay ChEMBL ID>  (374) 
CHEMBL1962174

>  <Assay Description>  (374) 
GSK_PKIS: SYK mean inhibition at 0.1 uM [Nanosyn]

>  <BAO Format ID>  (374) 
BAO_0000357

>  <BAO Label>  (374) 
single protein format

>  <Assay Organism>  (374) 
None

>  <Target ChEMBL ID>  (374) 
CHEMBL2599

>  <Target Name>  (374) 
Tyrosine-protein kinase SYK

>  <Target Organism>  (374) 
Homo sapiens

>  <Target Type>  (374) 
SINGLE PROTEIN

>  <Document ChEMBL ID>  (374) 
CHEMBL1961873

>  <Source Description>  (374) 
GSK Published Kinase Inhibitor Set

>  <Document Journal>  (374) 
nan

>  <Document Year>  (374) 
nan

>  <Active>  (374) 
0.0

>  <bits>  (374) 
<rdkit.DataStructs.cDataStructs.ExplicitBitVect object at 0x00000193F33E7AE0>

>  <Group>  (374) 
G2

$$$$

     RDKit          2D

 29 34  0  0  0  0  0  0  0  0999 V2000
    3.7500   -1.2990    0.0000 C   0  0  0  0  0  0  0  0  0  0  0  0
    3.0000    0.0000    0.0000 O   0  0  0  0  0  0  0  0  0  0  0  0
    1.5000    0.0000    0.0000 C   0  0  0  0  0  0  0  0  0  0  0  0
    0.7500   -1.2990    0.0000 C   0  0  0  0  0  0  0  0  0  0  0  0
   -0.7500   -1.2990    0.0000 C   0  0  0  0  0  0  0  0  0  0  0  0
   -1.5000    0.0000    0.0000 C   0  0  0  0  0  0  0  0  0  0  0  0
   -2.9672    0.3119    0.0000 N   0  0  0  0  0  0  0  0  0  0  0  0
   -3.1240    1.8037    0.0000 C   0  0  0  0  0  0  0  0  0  0  0  0
   -4.3375    2.6853    0.0000 C   0  0  0  0  0  0  0  0  0  0  0  0
   -5.8048    2.3735    0.0000 N   0  0  0  0  0  0  0  0  0  0  0  0
   -6.5548    3.6725    0.0000 C   0  0  0  0  0  0  0  0  0  0  0  0
   -8.0220    3.9844    0.0000 C   0  0  0  0  0  0  0  0  0  0  0  0
   -8.4855    5.4110    0.0000 C   0  0  0  0  0  0  0  0  0  0  0  0
   -7.4818    6.5257    0.0000 C   0  0  0  0  0  0  0  0  0  0  0  0
   -7.9453    7.9523    0.0000 O   0  0  0  0  0  0  0  0  0  0  0  0
   -6.9416    9.0670    0.0000 C   0  0  0  0  0  0  0  0  0  0  0  0
   -6.0146    6.2138    0.0000 C   0  0  0  0  0  0  0  0  0  0  0  0
   -5.5511    4.7872    0.0000 C   0  0  0  0  0  0  0  0  0  0  0  0
   -4.1807    4.1771    0.0000 C   0  0  0  0  0  0  0  0  0  0  0  0
   -2.8104    4.7872    0.0000 C   0  0  0  0  0  0  0  0  0  0  0  0
   -1.5969    3.9055    0.0000 C   0  0  0  0  0  0  0  0  0  0  0  0
   -1.7537    2.4138    0.0000 C   0  0  0  0  0  0  0  0  0  0  0  0
   -0.7500    1.2990    0.0000 C   0  0  0  0  0  0  0  0  0  0  0  0
    0.7500    1.2990    0.0000 C   0  0  0  0  0  0  0  0  0  0  0  0
   -0.3834    4.7872    0.0000 C   0  0  0  0  0  0  0  0  0  0  0  0
    1.0432    4.3237    0.0000 O   0  0  0  0  0  0  0  0  0  0  0  0
   -0.8469    6.2138    0.0000 N   0  0  0  0  0  0  0  0  0  0  0  0
   -2.3469    6.2138    0.0000 C   0  0  0  0  0  0  0  0  0  0  0  0
   -3.2286    7.4273    0.0000 O   0  0  0  0  0  0  0  0  0  0  0  0
  1  2  1  0
  2  3  1  0
  3  4  2  0
  4  5  1  0
  5  6  2  0
  6  7  1  0
  7  8  1  0
  8  9  2  0
  9 10  1  0
 10 11  1  0
 11 12  2  0
 12 13  1  0
 13 14  2  0
 14 15  1  0
 15 16  1  0
 14 17  1  0
 17 18  2  0
 18 19  1  0
 19 20  2  0
 20 21  1  0
 21 22  2  0
 22 23  1  0
 23 24  2  0
 21 25  1  0
 25 26  2  0
 25 27  1  0
 27 28  1  0
 28 29  2  0
 24  3  1  0
 23  6  1  0
 22  8  1  0
 19  9  1  0
 28 20  1  0
 18 11  1  0
M  END
>  <Compound_ID>  (375) 
CHEMBL1956068

>  <Molecule Name>  (375) 
GW296115X

>  <Molecular Weight>  (375) 
385.38

>  <AlogP>  (375) 
3.86

>  <Smiles>  (375) 
COc1ccc2[nH]c3c4[nH]c5ccc(OC)cc5c4c4c(c3c2c1)C(=O)NC4=O

>  <Standard Type>  (375) 
Inhibition

>  <Standard Relation>  (375) 
'='

>  <Standard Units>  (375) 
%

>  <Standard Value>  (375) 
-7.81

>  <Assay ChEMBL ID>  (375) 
CHEMBL1962174

>  <Assay Description>  (375) 
GSK_PKIS: SYK mean inhibition at 0.1 uM [Nanosyn]

>  <BAO Format ID>  (375) 
BAO_0000357

>  <BAO Label>  (375) 
single protein format

>  <Assay Organism>  (375) 
None

>  <Target ChEMBL ID>  (375) 
CHEMBL2599

>  <Target Name>  (375) 
Tyrosine-protein kinase SYK

>  <Target Organism>  (375) 
Homo sapiens

>  <Target Type>  (375) 
SINGLE PROTEIN

>  <Document ChEMBL ID>  (375) 
CHEMBL1961873

>  <Source Description>  (375) 
GSK Published Kinase Inhibitor Set

>  <Document Journal>  (375) 
nan

>  <Document Year>  (375) 
nan

>  <Active>  (375) 
0.0

>  <bits>  (375) 
<rdkit.DataStructs.cDataStructs.ExplicitBitVect object at 0x00000193F33E65E0>

>  <Group>  (375) 
G2

$$$$

     RDKit          2D

 24 28  0  0  0  0  0  0  0  0999 V2000
    3.0000    0.0000    0.0000 N   0  0  0  0  0  0  0  0  0  0  0  0
    1.5000    0.0000    0.0000 C   0  0  0  0  0  0  0  0  0  0  0  0
    0.7500   -1.2990    0.0000 N   0  0  0  0  0  0  0  0  0  0  0  0
   -0.7500   -1.2990    0.0000 C   0  0  0  0  0  0  0  0  0  0  0  0
   -1.5000    0.0000    0.0000 N   0  0  0  0  0  0  0  0  0  0  0  0
   -0.7500    1.2990    0.0000 C   0  0  0  0  0  0  0  0  0  0  0  0
    0.7500    1.2990    0.0000 C   0  0  0  0  0  0  0  0  0  0  0  0
    1.2135    2.7256    0.0000 C   0  0  0  0  0  0  0  0  0  0  0  0
    2.6401    3.1891    0.0000 C   0  0  0  0  0  0  0  0  0  0  0  0
    3.7548    2.1855    0.0000 C   0  0  0  0  0  0  0  0  0  0  0  0
    5.1814    2.6490    0.0000 N   0  0  0  0  0  0  0  0  0  0  0  0
    5.4933    4.1162    0.0000 C   0  0  0  0  0  0  0  0  0  0  0  0
    6.7923    4.8662    0.0000 N   0  0  0  0  0  0  0  0  0  0  0  0
    6.4805    6.3334    0.0000 C   0  0  0  0  0  0  0  0  0  0  0  0
    4.9887    6.4902    0.0000 C   0  0  0  0  0  0  0  0  0  0  0  0
    4.3786    5.1199    0.0000 C   0  0  0  0  0  0  0  0  0  0  0  0
    2.9520    4.6564    0.0000 C   0  0  0  0  0  0  0  0  0  0  0  0
   -0.0000    3.6073    0.0000 N   0  0  0  0  0  0  0  0  0  0  0  0
   -1.2135    2.7256    0.0000 N   0  0  0  0  0  0  0  0  0  0  0  0
   -2.6401    3.1891    0.0000 C   0  0  0  0  0  0  0  0  0  0  0  0
   -3.8536    2.3075    0.0000 C   0  0  0  0  0  0  0  0  0  0  0  0
   -5.0672    3.1891    0.0000 C   0  0  0  0  0  0  0  0  0  0  0  0
   -4.6036    4.6157    0.0000 C   0  0  0  0  0  0  0  0  0  0  0  0
   -3.1036    4.6157    0.0000 C   0  0  0  0  0  0  0  0  0  0  0  0
  1  2  1  0
  2  3  2  0
  3  4  1  0
  4  5  2  0
  5  6  1  0
  6  7  2  0
  7  8  1  0
  8  9  1  0
  9 10  2  0
 10 11  1  0
 11 12  2  0
 12 13  1  0
 13 14  1  0
 14 15  2  0
 15 16  1  0
 16 17  2  0
  8 18  2  0
 18 19  1  0
 19 20  1  0
 20 21  1  0
 21 22  1  0
 22 23  1  0
 23 24  1  0
  7  2  1  0
 17  9  1  0
 24 20  1  0
 19  6  1  0
 16 12  1  0
M  END
>  <Compound_ID>  (376) 
CHEMBL1081312

>  <Molecule Name>  (376) 
nan

>  <Molecular Weight>  (376) 
319.37

>  <AlogP>  (376) 
3.07

>  <Smiles>  (376) 
Nc1ncnc2c1c(-c1cnc3[nH]ccc3c1)nn2C1CCCC1

>  <Standard Type>  (376) 
Inhibition

>  <Standard Relation>  (376) 
'='

>  <Standard Units>  (376) 
%

>  <Standard Value>  (376) 
20.0

>  <Assay ChEMBL ID>  (376) 
CHEMBL1244304

>  <Assay Description>  (376) 
Inhibition of SYK at 1 uM after 60 mins by FRET assay in presence of 10 uM ATP

>  <BAO Format ID>  (376) 
BAO_0000357

>  <BAO Label>  (376) 
single protein format

>  <Assay Organism>  (376) 
None

>  <Target ChEMBL ID>  (376) 
CHEMBL2599

>  <Target Name>  (376) 
Tyrosine-protein kinase SYK

>  <Target Organism>  (376) 
Homo sapiens

>  <Target Type>  (376) 
SINGLE PROTEIN

>  <Document ChEMBL ID>  (376) 
CHEMBL1240340

>  <Source Description>  (376) 
Scientific Literature

>  <Document Journal>  (376) 
Nat Chem Biol

>  <Document Year>  (376) 
2008.0

>  <Active>  (376) 
0.0

>  <bits>  (376) 
<rdkit.DataStructs.cDataStructs.ExplicitBitVect object at 0x00000193F33E58C0>

>  <Group>  (376) 
G2

$$$$

     RDKit          2D

 31 34  0  0  0  0  0  0  0  0999 V2000
    3.0000    0.0000    0.0000 F   0  0  0  0  0  0  0  0  0  0  0  0
    1.5000    0.0000    0.0000 C   0  0  0  0  0  0  0  0  0  0  0  0
    0.7500   -1.2990    0.0000 C   0  0  0  0  0  0  0  0  0  0  0  0
   -0.7500   -1.2990    0.0000 C   0  0  0  0  0  0  0  0  0  0  0  0
   -1.5000    0.0000    0.0000 C   0  0  0  0  0  0  0  0  0  0  0  0
   -0.7500    1.2990    0.0000 C   0  0  0  0  0  0  0  0  0  0  0  0
   -1.5000    2.5981    0.0000 C   0  0  0  0  0  0  0  0  0  0  0  0
   -0.7500    3.8971    0.0000 O   0  0  0  0  0  0  0  0  0  0  0  0
   -1.5000    5.1962    0.0000 C   0  0  0  0  0  0  0  0  0  0  0  0
   -0.7500    6.4952    0.0000 C   0  0  0  0  0  0  0  0  0  0  0  0
   -1.5000    7.7942    0.0000 C   0  0  0  0  0  0  0  0  0  0  0  0
   -3.0000    7.7942    0.0000 C   0  0  0  0  0  0  0  0  0  0  0  0
   -3.7500    9.0933    0.0000 N   0  0  0  0  0  0  0  0  0  0  0  0
   -3.0000   10.3923    0.0000 C   0  0  0  0  0  0  0  0  0  0  0  0
   -1.5000   10.3923    0.0000 N   0  0  0  0  0  0  0  0  0  0  0  0
   -0.7500   11.6913    0.0000 C   0  0  0  0  0  0  0  0  0  0  0  0
   -1.5000   12.9904    0.0000 N   0  0  0  0  0  0  0  0  0  0  0  0
   -3.0000   12.9904    0.0000 C   0  0  0  0  0  0  0  0  0  0  0  0
   -3.7500   11.6913    0.0000 C   0  0  0  0  0  0  0  0  0  0  0  0
   -5.2500   11.6913    0.0000 C   0  0  0  0  0  0  0  0  0  0  0  0
   -6.7500   11.6913    0.0000 C   0  0  0  0  0  0  0  0  0  0  0  0
   -8.2500   11.6913    0.0000 C   0  0  0  0  0  0  0  0  0  0  0  0
   -9.0000   12.9904    0.0000 C   0  0  0  0  0  0  0  0  0  0  0  0
  -10.5000   12.9904    0.0000 C   0  0  0  0  0  0  0  0  0  0  0  0
  -11.2500   11.6913    0.0000 C   0  0  0  0  0  0  0  0  0  0  0  0
  -10.5000   10.3923    0.0000 C   0  0  0  0  0  0  0  0  0  0  0  0
   -9.0000   10.3923    0.0000 C   0  0  0  0  0  0  0  0  0  0  0  0
   -3.7500    6.4952    0.0000 C   0  0  0  0  0  0  0  0  0  0  0  0
   -3.0000    5.1962    0.0000 C   0  0  0  0  0  0  0  0  0  0  0  0
   -3.7500    3.8971    0.0000 Cl  0  0  0  0  0  0  0  0  0  0  0  0
    0.7500    1.2990    0.0000 C   0  0  0  0  0  0  0  0  0  0  0  0
  1  2  1  0
  2  3  2  0
  3  4  1  0
  4  5  2  0
  5  6  1  0
  6  7  1  0
  7  8  1  0
  8  9  1  0
  9 10  2  0
 10 11  1  0
 11 12  2  0
 12 13  1  0
 13 14  1  0
 14 15  2  0
 15 16  1  0
 16 17  2  0
 17 18  1  0
 18 19  2  0
 19 20  1  0
 20 21  3  0
 21 22  1  0
 22 23  2  0
 23 24  1  0
 24 25  2  0
 25 26  1  0
 26 27  2  0
 12 28  1  0
 28 29  2  0
 29 30  1  0
  6 31  2  0
 31  2  1  0
 29  9  1  0
 19 14  1  0
 27 22  1  0
M  END
>  <Compound_ID>  (377) 
CHEMBL379093

>  <Molecule Name>  (377) 
GW651576X

>  <Molecular Weight>  (377) 
429.88

>  <AlogP>  (377) 
5.99

>  <Smiles>  (377) 
Fc1cccc(COc2ccc(Nc3ncncc3C#Cc3ccccc3)cc2Cl)c1

>  <Standard Type>  (377) 
Inhibition

>  <Standard Relation>  (377) 
'='

>  <Standard Units>  (377) 
%

>  <Standard Value>  (377) 
-5.72

>  <Assay ChEMBL ID>  (377) 
CHEMBL1962174

>  <Assay Description>  (377) 
GSK_PKIS: SYK mean inhibition at 0.1 uM [Nanosyn]

>  <BAO Format ID>  (377) 
BAO_0000357

>  <BAO Label>  (377) 
single protein format

>  <Assay Organism>  (377) 
None

>  <Target ChEMBL ID>  (377) 
CHEMBL2599

>  <Target Name>  (377) 
Tyrosine-protein kinase SYK

>  <Target Organism>  (377) 
Homo sapiens

>  <Target Type>  (377) 
SINGLE PROTEIN

>  <Document ChEMBL ID>  (377) 
CHEMBL1961873

>  <Source Description>  (377) 
GSK Published Kinase Inhibitor Set

>  <Document Journal>  (377) 
nan

>  <Document Year>  (377) 
nan

>  <Active>  (377) 
0.0

>  <bits>  (377) 
<rdkit.DataStructs.cDataStructs.ExplicitBitVect object at 0x00000193F33E7290>

>  <Group>  (377) 
G2

$$$$

     RDKit          2D

 29 32  0  0  0  0  0  0  0  0999 V2000
    5.2500   -1.2990    0.0000 C   0  0  0  0  0  0  0  0  0  0  0  0
    3.7500   -1.2990    0.0000 C   0  0  0  0  0  0  0  0  0  0  0  0
    3.0000    0.0000    0.0000 O   0  0  0  0  0  0  0  0  0  0  0  0
    1.5000    0.0000    0.0000 C   0  0  0  0  0  0  0  0  0  0  0  0
    0.7500   -1.2990    0.0000 C   0  0  0  0  0  0  0  0  0  0  0  0
   -0.7500   -1.2990    0.0000 C   0  0  0  0  0  0  0  0  0  0  0  0
   -1.5000    0.0000    0.0000 C   0  0  0  0  0  0  0  0  0  0  0  0
   -2.9672    0.3119    0.0000 C   0  0  0  0  0  0  0  0  0  0  0  0
   -4.0819   -0.6918    0.0000 C   0  0  0  0  0  0  0  0  0  0  0  0
   -5.5085   -0.2283    0.0000 C   0  0  0  0  0  0  0  0  0  0  0  0
   -6.6232   -1.2320    0.0000 C   0  0  0  0  0  0  0  0  0  0  0  0
   -6.3114   -2.6992    0.0000 N   0  0  0  0  0  0  0  0  0  0  0  0
   -4.8848   -3.1627    0.0000 C   0  0  0  0  0  0  0  0  0  0  0  0
   -4.5729   -4.6300    0.0000 N   0  0  0  0  0  0  0  0  0  0  0  0
   -5.6876   -5.6337    0.0000 C   0  0  0  0  0  0  0  0  0  0  0  0
   -7.1142   -5.1701    0.0000 C   0  0  0  0  0  0  0  0  0  0  0  0
   -8.2289   -6.1738    0.0000 C   0  0  0  0  0  0  0  0  0  0  0  0
   -7.9171   -7.6411    0.0000 C   0  0  0  0  0  0  0  0  0  0  0  0
   -6.4905   -8.1046    0.0000 C   0  0  0  0  0  0  0  0  0  0  0  0
   -6.1786   -9.5718    0.0000 C   0  0  0  0  0  0  0  0  0  0  0  0
   -5.8668  -11.0390    0.0000 F   0  0  0  0  0  0  0  0  0  0  0  0
   -7.6458   -9.8837    0.0000 F   0  0  0  0  0  0  0  0  0  0  0  0
   -4.7114   -9.2599    0.0000 F   0  0  0  0  0  0  0  0  0  0  0  0
   -5.3758   -7.1009    0.0000 C   0  0  0  0  0  0  0  0  0  0  0  0
   -3.7701   -2.1590    0.0000 N   0  0  0  0  0  0  0  0  0  0  0  0
   -3.1240    1.8037    0.0000 C   0  0  0  0  0  0  0  0  0  0  0  0
   -1.7537    2.4138    0.0000 N   0  0  0  0  0  0  0  0  0  0  0  0
   -0.7500    1.2990    0.0000 N   0  0  0  0  0  0  0  0  0  0  0  0
    0.7500    1.2990    0.0000 N   0  0  0  0  0  0  0  0  0  0  0  0
  1  2  1  0
  2  3  1  0
  3  4  1  0
  4  5  1  0
  5  6  2  0
  6  7  1  0
  7  8  2  0
  8  9  1  0
  9 10  2  0
 10 11  1  0
 11 12  2  0
 12 13  1  0
 13 14  1  0
 14 15  1  0
 15 16  2  0
 16 17  1  0
 17 18  2  0
 18 19  1  0
 19 20  1  0
 20 21  1  0
 20 22  1  0
 20 23  1  0
 19 24  2  0
 13 25  2  0
  8 26  1  0
 26 27  2  0
 27 28  1  0
 28 29  1  0
 29  4  2  0
 28  7  1  0
 25  9  1  0
 24 15  1  0
M  END
>  <Compound_ID>  (378) 
CHEMBL183993

>  <Molecule Name>  (378) 
GW811761X

>  <Molecular Weight>  (378) 
400.36

>  <AlogP>  (378) 
4.35

>  <Smiles>  (378) 
CCOc1ccc2c(-c3ccnc(Nc4cccc(C(F)(F)F)c4)n3)cnn2n1

>  <Standard Type>  (378) 
Inhibition

>  <Standard Relation>  (378) 
'='

>  <Standard Units>  (378) 
%

>  <Standard Value>  (378) 
-6.38

>  <Assay ChEMBL ID>  (378) 
CHEMBL1962175

>  <Assay Description>  (378) 
GSK_PKIS: SYK mean inhibition at 1 uM [Nanosyn]

>  <BAO Format ID>  (378) 
BAO_0000357

>  <BAO Label>  (378) 
single protein format

>  <Assay Organism>  (378) 
None

>  <Target ChEMBL ID>  (378) 
CHEMBL2599

>  <Target Name>  (378) 
Tyrosine-protein kinase SYK

>  <Target Organism>  (378) 
Homo sapiens

>  <Target Type>  (378) 
SINGLE PROTEIN

>  <Document ChEMBL ID>  (378) 
CHEMBL1961873

>  <Source Description>  (378) 
GSK Published Kinase Inhibitor Set

>  <Document Journal>  (378) 
nan

>  <Document Year>  (378) 
nan

>  <Active>  (378) 
0.0

>  <bits>  (378) 
<rdkit.DataStructs.cDataStructs.ExplicitBitVect object at 0x00000193F33E5070>

>  <Group>  (378) 
G2

$$$$

     RDKit          2D

 24 26  0  0  0  0  0  0  0  0999 V2000
   -3.7548   -2.1855    0.0000 C   0  0  0  0  0  0  0  0  0  0  0  0
   -2.6401   -3.1891    0.0000 C   0  0  0  0  0  0  0  0  0  0  0  0
   -1.2135   -2.7256    0.0000 N   0  0  0  0  0  0  0  0  0  0  0  0
   -0.0000   -3.6073    0.0000 C   0  0  0  0  0  0  0  0  0  0  0  0
   -0.0000   -5.1073    0.0000 C   0  0  0  0  0  0  0  0  0  0  0  0
    1.2135   -5.9890    0.0000 N   0  0  0  0  0  0  0  0  0  0  0  0
    0.7500   -7.4156    0.0000 O   0  0  0  0  0  0  0  0  0  0  0  0
   -0.7500   -7.4156    0.0000 N   0  0  0  0  0  0  0  0  0  0  0  0
   -1.2135   -5.9890    0.0000 C   0  0  0  0  0  0  0  0  0  0  0  0
   -2.6401   -5.5255    0.0000 N   0  0  0  0  0  0  0  0  0  0  0  0
    1.2135   -2.7256    0.0000 N   0  0  0  0  0  0  0  0  0  0  0  0
    0.7500   -1.2990    0.0000 C   0  0  0  0  0  0  0  0  0  0  0  0
    1.5000    0.0000    0.0000 C   0  0  0  0  0  0  0  0  0  0  0  0
    0.7500    1.2990    0.0000 N   0  0  0  0  0  0  0  0  0  0  0  0
   -0.7500    1.2990    0.0000 C   0  0  0  0  0  0  0  0  0  0  0  0
   -1.5000    0.0000    0.0000 C   0  0  0  0  0  0  0  0  0  0  0  0
   -3.0000    0.0000    0.0000 C   0  0  0  0  0  0  0  0  0  0  0  0
   -3.7500   -1.2990    0.0000 O   0  0  0  0  0  0  0  0  0  0  0  0
   -3.7500    1.2990    0.0000 N   0  0  0  0  0  0  0  0  0  0  0  0
   -5.2500    1.2990    0.0000 C   0  0  0  0  0  0  0  0  0  0  0  0
   -6.0000    2.5981    0.0000 C   0  0  0  0  0  0  0  0  0  0  0  0
   -7.5000    2.5981    0.0000 N   0  0  0  0  0  0  0  0  0  0  0  0
   -8.2500    3.8971    0.0000 C   0  0  0  0  0  0  0  0  0  0  0  0
   -0.7500   -1.2990    0.0000 C   0  0  0  0  0  0  0  0  0  0  0  0
  1  2  1  0
  2  3  1  0
  3  4  1  0
  4  5  1  0
  5  6  2  0
  6  7  1  0
  7  8  1  0
  8  9  2  0
  9 10  1  0
  4 11  2  0
 11 12  1  0
 12 13  2  0
 13 14  1  0
 14 15  2  0
 15 16  1  0
 16 17  1  0
 17 18  2  0
 17 19  1  0
 19 20  1  0
 20 21  1  0
 21 22  1  0
 22 23  1  0
 16 24  2  0
 24  3  1  0
  9  5  1  0
 24 12  1  0
M  END
>  <Compound_ID>  (379) 
CHEMBL506153

>  <Molecule Name>  (379) 
GW876790X

>  <Molecular Weight>  (379) 
330.35

>  <AlogP>  (379) 
0.03

>  <Smiles>  (379) 
CCn1c(-c2nonc2N)nc2cncc(C(=O)NCCNC)c21

>  <Standard Type>  (379) 
Inhibition

>  <Standard Relation>  (379) 
'='

>  <Standard Units>  (379) 
%

>  <Standard Value>  (379) 
-1.48

>  <Assay ChEMBL ID>  (379) 
CHEMBL1962174

>  <Assay Description>  (379) 
GSK_PKIS: SYK mean inhibition at 0.1 uM [Nanosyn]

>  <BAO Format ID>  (379) 
BAO_0000357

>  <BAO Label>  (379) 
single protein format

>  <Assay Organism>  (379) 
None

>  <Target ChEMBL ID>  (379) 
CHEMBL2599

>  <Target Name>  (379) 
Tyrosine-protein kinase SYK

>  <Target Organism>  (379) 
Homo sapiens

>  <Target Type>  (379) 
SINGLE PROTEIN

>  <Document ChEMBL ID>  (379) 
CHEMBL1961873

>  <Source Description>  (379) 
GSK Published Kinase Inhibitor Set

>  <Document Journal>  (379) 
nan

>  <Document Year>  (379) 
nan

>  <Active>  (379) 
0.0

>  <bits>  (379) 
<rdkit.DataStructs.cDataStructs.ExplicitBitVect object at 0x00000193F33E6FF0>

>  <Group>  (379) 
G2

$$$$

     RDKit          2D

 31 35  0  0  0  0  0  0  0  0999 V2000
    3.0000   -5.1962    0.0000 C   0  0  0  0  0  0  0  0  0  0  0  0
    1.5000   -5.1962    0.0000 O   0  0  0  0  0  0  0  0  0  0  0  0
    0.7500   -3.8971    0.0000 C   0  0  0  0  0  0  0  0  0  0  0  0
    1.5000   -2.5981    0.0000 C   0  0  0  0  0  0  0  0  0  0  0  0
    0.7500   -1.2990    0.0000 C   0  0  0  0  0  0  0  0  0  0  0  0
    1.5000    0.0000    0.0000 N   0  0  0  0  0  0  0  0  0  0  0  0
    0.7500    1.2990    0.0000 C   0  0  0  0  0  0  0  0  0  0  0  0
   -0.7500    1.2990    0.0000 N   0  0  0  0  0  0  0  0  0  0  0  0
   -1.5000    0.0000    0.0000 C   0  0  0  0  0  0  0  0  0  0  0  0
   -3.0000    0.0000    0.0000 N   0  0  0  0  0  0  0  0  0  0  0  0
   -3.7500    1.2990    0.0000 C   0  0  0  0  0  0  0  0  0  0  0  0
   -3.0000    2.5981    0.0000 C   0  0  0  0  0  0  0  0  0  0  0  0
   -3.7500    3.8971    0.0000 C   0  0  0  0  0  0  0  0  0  0  0  0
   -5.2500    3.8971    0.0000 C   0  0  0  0  0  0  0  0  0  0  0  0
   -6.0000    2.5981    0.0000 C   0  0  0  0  0  0  0  0  0  0  0  0
   -7.4672    2.9099    0.0000 C   0  0  0  0  0  0  0  0  0  0  0  0
   -7.6240    4.4017    0.0000 N   0  0  0  0  0  0  0  0  0  0  0  0
   -6.2537    5.0118    0.0000 N   0  0  0  0  0  0  0  0  0  0  0  0
   -5.9418    6.4791    0.0000 C   0  0  0  0  0  0  0  0  0  0  0  0
   -7.0565    7.4827    0.0000 C   0  0  0  0  0  0  0  0  0  0  0  0
   -6.7447    8.9500    0.0000 C   0  0  0  0  0  0  0  0  0  0  0  0
   -7.8594    9.9537    0.0000 C   0  0  0  0  0  0  0  0  0  0  0  0
   -9.2860    9.4901    0.0000 C   0  0  0  0  0  0  0  0  0  0  0  0
   -9.5978    8.0229    0.0000 C   0  0  0  0  0  0  0  0  0  0  0  0
   -8.4831    7.0192    0.0000 C   0  0  0  0  0  0  0  0  0  0  0  0
   -5.2500    1.2990    0.0000 C   0  0  0  0  0  0  0  0  0  0  0  0
   -0.7500   -1.2990    0.0000 C   0  0  0  0  0  0  0  0  0  0  0  0
   -1.5000   -2.5981    0.0000 C   0  0  0  0  0  0  0  0  0  0  0  0
   -0.7500   -3.8971    0.0000 C   0  0  0  0  0  0  0  0  0  0  0  0
   -1.5000   -5.1962    0.0000 O   0  0  0  0  0  0  0  0  0  0  0  0
   -3.0000   -5.1962    0.0000 C   0  0  0  0  0  0  0  0  0  0  0  0
  1  2  1  0
  2  3  1  0
  3  4  2  0
  4  5  1  0
  5  6  2  0
  6  7  1  0
  7  8  2  0
  8  9  1  0
  9 10  1  0
 10 11  1  0
 11 12  2  0
 12 13  1  0
 13 14  2  0
 14 15  1  0
 15 16  1  0
 16 17  2  0
 17 18  1  0
 18 19  1  0
 19 20  1  0
 20 21  2  0
 21 22  1  0
 22 23  2  0
 23 24  1  0
 24 25  2  0
 15 26  2  0
  9 27  2  0
 27 28  1  0
 28 29  2  0
 29 30  1  0
 30 31  1  0
 29  3  1  0
 27  5  1  0
 26 11  1  0
 18 14  1  0
 25 20  1  0
M  END
>  <Compound_ID>  (380) 
CHEMBL1909380

>  <Molecule Name>  (380) 
GW282449A

>  <Molecular Weight>  (380) 
447.93

>  <AlogP>  (380) 
4.79

>  <Smiles>  (380) 
COc1cc2ncnc(Nc3ccc4c(cnn4Cc4ccccc4)c3)c2cc1OC

>  <Standard Type>  (380) 
Inhibition

>  <Standard Relation>  (380) 
'='

>  <Standard Units>  (380) 
%

>  <Standard Value>  (380) 
4.44

>  <Assay ChEMBL ID>  (380) 
CHEMBL1962174

>  <Assay Description>  (380) 
GSK_PKIS: SYK mean inhibition at 0.1 uM [Nanosyn]

>  <BAO Format ID>  (380) 
BAO_0000357

>  <BAO Label>  (380) 
single protein format

>  <Assay Organism>  (380) 
None

>  <Target ChEMBL ID>  (380) 
CHEMBL2599

>  <Target Name>  (380) 
Tyrosine-protein kinase SYK

>  <Target Organism>  (380) 
Homo sapiens

>  <Target Type>  (380) 
SINGLE PROTEIN

>  <Document ChEMBL ID>  (380) 
CHEMBL1961873

>  <Source Description>  (380) 
GSK Published Kinase Inhibitor Set

>  <Document Journal>  (380) 
nan

>  <Document Year>  (380) 
nan

>  <Active>  (380) 
0.0

>  <bits>  (380) 
<rdkit.DataStructs.cDataStructs.ExplicitBitVect object at 0x00000193F33E4820>

>  <Group>  (380) 
G2

$$$$

     RDKit          2D

 39 44  0  0  0  0  0  0  0  0999 V2000
   -0.8087  -14.1104    0.0000 C   0  0  0  0  0  0  0  0  0  0  0  0
   -0.1986  -12.7400    0.0000 N   0  0  0  0  0  0  0  0  0  0  0  0
   -1.0803  -11.5265    0.0000 C   0  0  0  0  0  0  0  0  0  0  0  0
   -0.4702  -10.1562    0.0000 C   0  0  0  0  0  0  0  0  0  0  0  0
    1.0216   -9.9994    0.0000 N   0  0  0  0  0  0  0  0  0  0  0  0
    1.6317   -8.6291    0.0000 C   0  0  0  0  0  0  0  0  0  0  0  0
    0.7500   -7.4156    0.0000 C   0  0  0  0  0  0  0  0  0  0  0  0
   -0.7500   -7.4156    0.0000 C   0  0  0  0  0  0  0  0  0  0  0  0
   -1.2135   -5.9890    0.0000 C   0  0  0  0  0  0  0  0  0  0  0  0
   -0.0000   -5.1073    0.0000 C   0  0  0  0  0  0  0  0  0  0  0  0
   -0.0000   -3.6073    0.0000 C   0  0  0  0  0  0  0  0  0  0  0  0
    1.2135   -2.7256    0.0000 C   0  0  0  0  0  0  0  0  0  0  0  0
    0.7500   -1.2990    0.0000 C   0  0  0  0  0  0  0  0  0  0  0  0
    1.5000    0.0000    0.0000 N   0  0  0  0  0  0  0  0  0  0  0  0
    0.7500    1.2990    0.0000 C   0  0  0  0  0  0  0  0  0  0  0  0
   -0.7500    1.2990    0.0000 N   0  0  0  0  0  0  0  0  0  0  0  0
   -1.5000    0.0000    0.0000 C   0  0  0  0  0  0  0  0  0  0  0  0
   -3.0000    0.0000    0.0000 N   0  0  0  0  0  0  0  0  0  0  0  0
   -3.7500    1.2990    0.0000 C   0  0  0  0  0  0  0  0  0  0  0  0
   -3.0000    2.5981    0.0000 C   0  0  0  0  0  0  0  0  0  0  0  0
   -3.7500    3.8971    0.0000 C   0  0  0  0  0  0  0  0  0  0  0  0
   -5.2500    3.8971    0.0000 C   0  0  0  0  0  0  0  0  0  0  0  0
   -6.0000    5.1962    0.0000 O   0  0  0  0  0  0  0  0  0  0  0  0
   -5.2500    6.4952    0.0000 C   0  0  0  0  0  0  0  0  0  0  0  0
   -6.0000    7.7942    0.0000 C   0  0  0  0  0  0  0  0  0  0  0  0
   -5.2500    9.0933    0.0000 C   0  0  0  0  0  0  0  0  0  0  0  0
   -6.0000   10.3923    0.0000 C   0  0  0  0  0  0  0  0  0  0  0  0
   -7.5000   10.3923    0.0000 C   0  0  0  0  0  0  0  0  0  0  0  0
   -8.2500    9.0933    0.0000 C   0  0  0  0  0  0  0  0  0  0  0  0
   -9.7500    9.0933    0.0000 F   0  0  0  0  0  0  0  0  0  0  0  0
   -7.5000    7.7942    0.0000 C   0  0  0  0  0  0  0  0  0  0  0  0
   -6.0000    2.5981    0.0000 C   0  0  0  0  0  0  0  0  0  0  0  0
   -7.5000    2.5981    0.0000 Cl  0  0  0  0  0  0  0  0  0  0  0  0
   -5.2500    1.2990    0.0000 C   0  0  0  0  0  0  0  0  0  0  0  0
   -0.7500   -1.2990    0.0000 C   0  0  0  0  0  0  0  0  0  0  0  0
   -1.2135   -2.7256    0.0000 S   0  0  0  0  0  0  0  0  0  0  0  0
    1.2135   -5.9890    0.0000 O   0  0  0  0  0  0  0  0  0  0  0  0
    1.9033  -11.2129    0.0000 C   0  0  0  0  0  0  0  0  0  0  0  0
    1.2931  -12.5833    0.0000 C   0  0  0  0  0  0  0  0  0  0  0  0
  1  2  1  0
  2  3  1  0
  3  4  1  0
  4  5  1  0
  5  6  1  0
  6  7  1  0
  7  8  2  0
  8  9  1  0
  9 10  2  0
 10 11  1  0
 11 12  2  0
 12 13  1  0
 13 14  2  0
 14 15  1  0
 15 16  2  0
 16 17  1  0
 17 18  1  0
 18 19  1  0
 19 20  2  0
 20 21  1  0
 21 22  2  0
 22 23  1  0
 23 24  1  0
 24 25  1  0
 25 26  2  0
 26 27  1  0
 27 28  2  0
 28 29  1  0
 29 30  1  0
 29 31  2  0
 22 32  1  0
 32 33  1  0
 32 34  2  0
 17 35  2  0
 35 36  1  0
 10 37  1  0
  5 38  1  0
 38 39  1  0
 39  2  1  0
 37  7  1  0
 36 11  1  0
 35 13  1  0
 34 19  1  0
 31 25  1  0
M  END
>  <Compound_ID>  (381) 
CHEMBL475761

>  <Molecule Name>  (381) 
GW784684X

>  <Molecular Weight>  (381) 
564.09

>  <AlogP>  (381) 
6.81

>  <Smiles>  (381) 
CN1CCN(Cc2ccc(-c3cc4ncnc(Nc5ccc(OCc6cccc(F)c6)c(Cl)c5)c4s3)o2)CC1

>  <Standard Type>  (381) 
Inhibition

>  <Standard Relation>  (381) 
'='

>  <Standard Units>  (381) 
%

>  <Standard Value>  (381) 
0.19

>  <Assay ChEMBL ID>  (381) 
CHEMBL1962174

>  <Assay Description>  (381) 
GSK_PKIS: SYK mean inhibition at 0.1 uM [Nanosyn]

>  <BAO Format ID>  (381) 
BAO_0000357

>  <BAO Label>  (381) 
single protein format

>  <Assay Organism>  (381) 
None

>  <Target ChEMBL ID>  (381) 
CHEMBL2599

>  <Target Name>  (381) 
Tyrosine-protein kinase SYK

>  <Target Organism>  (381) 
Homo sapiens

>  <Target Type>  (381) 
SINGLE PROTEIN

>  <Document ChEMBL ID>  (381) 
CHEMBL1961873

>  <Source Description>  (381) 
GSK Published Kinase Inhibitor Set

>  <Document Journal>  (381) 
nan

>  <Document Year>  (381) 
nan

>  <Active>  (381) 
0.0

>  <bits>  (381) 
<rdkit.DataStructs.cDataStructs.ExplicitBitVect object at 0x00000193F33E4970>

>  <Group>  (381) 
G2

$$$$

     RDKit          2D

 32 36  0  0  0  0  0  0  0  0999 V2000
   -3.0000   -5.1962    0.0000 C   0  0  0  0  0  0  0  0  0  0  0  0
   -1.5000   -5.1962    0.0000 C   0  0  0  0  0  0  0  0  0  0  0  0
   -0.7500   -3.8971    0.0000 C   0  0  0  0  0  0  0  0  0  0  0  0
    0.7500   -3.8971    0.0000 C   0  0  0  0  0  0  0  0  0  0  0  0
    1.5000   -5.1962    0.0000 O   0  0  0  0  0  0  0  0  0  0  0  0
    1.5000   -2.5981    0.0000 N   0  0  0  0  0  0  0  0  0  0  0  0
    3.0000   -2.5981    0.0000 C   0  0  0  0  0  0  0  0  0  0  0  0
    0.7500   -1.2990    0.0000 C   0  0  0  0  0  0  0  0  0  0  0  0
    1.5000    0.0000    0.0000 C   0  0  0  0  0  0  0  0  0  0  0  0
    0.7500    1.2990    0.0000 N   0  0  0  0  0  0  0  0  0  0  0  0
   -0.7500    1.2990    0.0000 C   0  0  0  0  0  0  0  0  0  0  0  0
   -1.5000    2.5981    0.0000 N   0  0  0  0  0  0  0  0  0  0  0  0
   -2.9918    2.7549    0.0000 C   0  0  0  0  0  0  0  0  0  0  0  0
   -3.3037    4.2221    0.0000 C   0  0  0  0  0  0  0  0  0  0  0  0
   -2.0046    4.9721    0.0000 N   0  0  0  0  0  0  0  0  0  0  0  0
   -0.8899    3.9684    0.0000 C   0  0  0  0  0  0  0  0  0  0  0  0
    0.5773    4.2803    0.0000 C   0  0  0  0  0  0  0  0  0  0  0  0
    1.5810    3.1655    0.0000 C   0  0  0  0  0  0  0  0  0  0  0  0
    3.0482    3.4774    0.0000 C   0  0  0  0  0  0  0  0  0  0  0  0
    3.5118    4.9040    0.0000 C   0  0  0  0  0  0  0  0  0  0  0  0
    4.9790    5.2159    0.0000 F   0  0  0  0  0  0  0  0  0  0  0  0
    2.5081    6.0187    0.0000 C   0  0  0  0  0  0  0  0  0  0  0  0
    1.0409    5.7068    0.0000 C   0  0  0  0  0  0  0  0  0  0  0  0
   -1.5000    0.0000    0.0000 N   0  0  0  0  0  0  0  0  0  0  0  0
   -0.7500   -1.2990    0.0000 C   0  0  0  0  0  0  0  0  0  0  0  0
   -1.5000   -2.5981    0.0000 N   0  0  0  0  0  0  0  0  0  0  0  0
   -3.0000   -2.5981    0.0000 C   0  0  0  0  0  0  0  0  0  0  0  0
   -3.8817   -3.8116    0.0000 C   0  0  0  0  0  0  0  0  0  0  0  0
   -5.3083   -3.3481    0.0000 C   0  0  0  0  0  0  0  0  0  0  0  0
   -5.3083   -1.8481    0.0000 N   0  0  0  0  0  0  0  0  0  0  0  0
   -6.5218   -0.9664    0.0000 C   0  0  0  0  0  0  0  0  0  0  0  0
   -3.8817   -1.3846    0.0000 N   0  0  0  0  0  0  0  0  0  0  0  0
  1  2  1  0
  3  2  1  1
  3  4  1  0
  4  5  2  0
  4  6  1  0
  6  7  1  0
  6  8  1  0
  8  9  2  0
  9 10  1  0
 10 11  2  0
 11 12  1  0
 12 13  1  0
 13 14  2  0
 14 15  1  0
 15 16  2  0
 16 17  1  0
 17 18  2  0
 18 19  1  0
 19 20  2  0
 20 21  1  0
 20 22  1  0
 22 23  2  0
 11 24  1  0
 24 25  2  0
 25 26  1  0
 26 27  1  0
 27 28  1  0
 28 29  2  0
 29 30  1  0
 30 31  1  0
 30 32  1  0
 26  3  1  0
 32 27  2  0
 25  8  1  0
 16 12  1  0
 23 17  1  0
M  END
>  <Compound_ID>  (382) 
CHEMBL2402081

>  <Molecule Name>  (382) 
nan

>  <Molecular Weight>  (382) 
432.46

>  <AlogP>  (382) 
3.10

>  <Smiles>  (382) 
CC[C@@H]1C(=O)N(C)c2cnc(-n3ccnc3-c3ccc(F)cc3)nc2N1c1ccn(C)n1

>  <Standard Type>  (382) 
Inhibition

>  <Standard Relation>  (382) 
'='

>  <Standard Units>  (382) 
%

>  <Standard Value>  (382) 
-1.0

>  <Assay ChEMBL ID>  (382) 
CHEMBL2405659

>  <Assay Description>  (382) 
Inhibition of SYK (unknown origin) at 10 uM relative to control

>  <BAO Format ID>  (382) 
BAO_0000357

>  <BAO Label>  (382) 
single protein format

>  <Assay Organism>  (382) 
Homo sapiens

>  <Target ChEMBL ID>  (382) 
CHEMBL2599

>  <Target Name>  (382) 
Tyrosine-protein kinase SYK

>  <Target Organism>  (382) 
Homo sapiens

>  <Target Type>  (382) 
SINGLE PROTEIN

>  <Document ChEMBL ID>  (382) 
CHEMBL2401733

>  <Source Description>  (382) 
Scientific Literature

>  <Document Journal>  (382) 
Bioorg Med Chem Lett

>  <Document Year>  (382) 
2013.0

>  <Active>  (382) 
0.0

>  <bits>  (382) 
<rdkit.DataStructs.cDataStructs.ExplicitBitVect object at 0x00000193F33E6490>

>  <Group>  (382) 
G2

$$$$

     RDKit          2D

 18 20  0  0  0  0  0  0  0  0999 V2000
   -2.6401   -3.1891    0.0000 C   0  0  0  0  0  0  0  0  0  0  0  0
   -1.2135   -2.7256    0.0000 C   0  0  0  0  0  0  0  0  0  0  0  0
   -0.0000   -3.6073    0.0000 N   0  0  0  0  0  0  0  0  0  0  0  0
    1.2135   -2.7256    0.0000 N   0  0  0  0  0  0  0  0  0  0  0  0
    0.7500   -1.2990    0.0000 C   0  0  0  0  0  0  0  0  0  0  0  0
    1.5000    0.0000    0.0000 C   0  0  0  0  0  0  0  0  0  0  0  0
    0.7500    1.2990    0.0000 C   0  0  0  0  0  0  0  0  0  0  0  0
   -0.7500    1.2990    0.0000 N   0  0  0  0  0  0  0  0  0  0  0  0
   -1.5000    0.0000    0.0000 C   0  0  0  0  0  0  0  0  0  0  0  0
   -3.0000    0.0000    0.0000 N   0  0  0  0  0  0  0  0  0  0  0  0
   -3.7500    1.2990    0.0000 C   0  0  0  0  0  0  0  0  0  0  0  0
   -3.0000    2.5981    0.0000 C   0  0  0  0  0  0  0  0  0  0  0  0
   -3.7500    3.8971    0.0000 C   0  0  0  0  0  0  0  0  0  0  0  0
   -5.2500    3.8971    0.0000 C   0  0  0  0  0  0  0  0  0  0  0  0
   -6.0000    2.5981    0.0000 C   0  0  0  0  0  0  0  0  0  0  0  0
   -5.2500    1.2990    0.0000 C   0  0  0  0  0  0  0  0  0  0  0  0
   -6.0000    0.0000    0.0000 F   0  0  0  0  0  0  0  0  0  0  0  0
   -0.7500   -1.2990    0.0000 C   0  0  0  0  0  0  0  0  0  0  0  0
  1  2  1  0
  2  3  2  0
  3  4  1  0
  4  5  1  0
  5  6  2  0
  6  7  1  0
  7  8  2  0
  8  9  1  0
  9 10  1  0
 10 11  1  0
 11 12  2  0
 12 13  1  0
 13 14  2  0
 14 15  1  0
 15 16  2  0
 16 17  1  0
  9 18  2  0
 18  2  1  0
 18  5  1  0
 16 11  1  0
M  END
>  <Compound_ID>  (383) 
CHEMBL4449552

>  <Molecule Name>  (383) 
nan

>  <Molecular Weight>  (383) 
242.26

>  <AlogP>  (383) 
3.15

>  <Smiles>  (383) 
Cc1n[nH]c2ccnc(Nc3ccccc3F)c12

>  <Standard Type>  (383) 
Inhibition

>  <Standard Relation>  (383) 
'='

>  <Standard Units>  (383) 
%

>  <Standard Value>  (383) 
0.0

>  <Assay ChEMBL ID>  (383) 
CHEMBL4331961

>  <Assay Description>  (383) 
Inhibition of SYK (unknown origin) at 10 uM relative to control

>  <BAO Format ID>  (383) 
BAO_0000357

>  <BAO Label>  (383) 
single protein format

>  <Assay Organism>  (383) 
Homo sapiens

>  <Target ChEMBL ID>  (383) 
CHEMBL2599

>  <Target Name>  (383) 
Tyrosine-protein kinase SYK

>  <Target Organism>  (383) 
Homo sapiens

>  <Target Type>  (383) 
SINGLE PROTEIN

>  <Document ChEMBL ID>  (383) 
CHEMBL4330096

>  <Source Description>  (383) 
Scientific Literature

>  <Document Journal>  (383) 
Bioorg Med Chem Lett

>  <Document Year>  (383) 
2019.0

>  <Active>  (383) 
0.0

>  <bits>  (383) 
<rdkit.DataStructs.cDataStructs.ExplicitBitVect object at 0x00000193F33E5B60>

>  <Group>  (383) 
G2

$$$$

     RDKit          2D

 20 21  0  0  0  0  0  0  0  0999 V2000
    3.0000    0.0000    0.0000 C   0  0  0  0  0  0  0  0  0  0  0  0
    1.5000    0.0000    0.0000 C   0  0  0  0  0  0  0  0  0  0  0  0
    0.7500   -1.2990    0.0000 C   0  0  0  0  0  0  0  0  0  0  0  0
   -0.7500   -1.2990    0.0000 C   0  0  0  0  0  0  0  0  0  0  0  0
   -1.5000   -2.5981    0.0000 O   0  0  0  0  0  0  0  0  0  0  0  0
   -1.5000    0.0000    0.0000 C   0  0  0  0  0  0  0  0  0  0  0  0
   -0.7500    1.2990    0.0000 C   0  0  0  0  0  0  0  0  0  0  0  0
   -1.5000    2.5981    0.0000 C   0  0  0  0  0  0  0  0  0  0  0  0
    0.7500    1.2990    0.0000 C   0  0  0  0  0  0  0  0  0  0  0  0
    1.5000    2.5981    0.0000 C   0  0  0  0  0  0  0  0  0  0  0  0
    3.0000    2.5981    0.0000 C   0  0  0  0  0  0  0  0  0  0  0  0
    3.7500    3.8971    0.0000 C   0  0  0  0  0  0  0  0  0  0  0  0
    5.2500    3.8971    0.0000 C   0  0  0  0  0  0  0  0  0  0  0  0
    6.0000    5.1962    0.0000 N   0  0  0  0  0  0  0  0  0  0  0  0
    5.2500    6.4952    0.0000 C   0  0  0  0  0  0  0  0  0  0  0  0
    3.7500    6.4952    0.0000 C   0  0  0  0  0  0  0  0  0  0  0  0
    3.0000    7.7942    0.0000 C   0  0  0  0  0  0  0  0  0  0  0  0
    3.7500    9.0933    0.0000 N   0  0  0  0  0  0  0  0  0  0  0  0
    1.5000    7.7942    0.0000 O   0  0  0  0  0  0  0  0  0  0  0  0
    3.0000    5.1962    0.0000 C   0  0  0  0  0  0  0  0  0  0  0  0
  1  2  1  0
  2  3  2  0
  3  4  1  0
  4  5  1  0
  4  6  2  0
  6  7  1  0
  7  8  1  0
  7  9  2  0
  9 10  1  0
 10 11  2  0
 11 12  1  0
 12 13  2  0
 13 14  1  0
 14 15  2  0
 15 16  1  0
 16 17  1  0
 17 18  1  0
 17 19  2  0
 16 20  2  0
  9  2  1  0
 20 12  1  0
M  END
>  <Compound_ID>  (384) 
CHEMBL218088

>  <Molecule Name>  (384) 
GW435821X

>  <Molecular Weight>  (384) 
268.32

>  <AlogP>  (384) 
2.67

>  <Smiles>  (384) 
Cc1cc(O)cc(C)c1/C=C/c1cncc(C(N)=O)c1

>  <Standard Type>  (384) 
Inhibition

>  <Standard Relation>  (384) 
'='

>  <Standard Units>  (384) 
%

>  <Standard Value>  (384) 
0.5

>  <Assay ChEMBL ID>  (384) 
CHEMBL1962175

>  <Assay Description>  (384) 
GSK_PKIS: SYK mean inhibition at 1 uM [Nanosyn]

>  <BAO Format ID>  (384) 
BAO_0000357

>  <BAO Label>  (384) 
single protein format

>  <Assay Organism>  (384) 
None

>  <Target ChEMBL ID>  (384) 
CHEMBL2599

>  <Target Name>  (384) 
Tyrosine-protein kinase SYK

>  <Target Organism>  (384) 
Homo sapiens

>  <Target Type>  (384) 
SINGLE PROTEIN

>  <Document ChEMBL ID>  (384) 
CHEMBL1961873

>  <Source Description>  (384) 
GSK Published Kinase Inhibitor Set

>  <Document Journal>  (384) 
nan

>  <Document Year>  (384) 
nan

>  <Active>  (384) 
0.0

>  <bits>  (384) 
<rdkit.DataStructs.cDataStructs.ExplicitBitVect object at 0x00000193F33E4F90>

>  <Group>  (384) 
G2

$$$$

     RDKit          2D

 32 35  0  0  0  0  0  0  0  0999 V2000
    1.3299    5.6152    0.0000 C   0  0  0  0  0  0  0  0  0  0  0  0
   -0.0967    5.1517    0.0000 O   0  0  0  0  0  0  0  0  0  0  0  0
   -0.4086    3.6844    0.0000 C   0  0  0  0  0  0  0  0  0  0  0  0
    0.7062    2.6807    0.0000 C   0  0  0  0  0  0  0  0  0  0  0  0
    0.3943    1.2135    0.0000 C   0  0  0  0  0  0  0  0  0  0  0  0
    1.2760    0.0000    0.0000 N   0  0  0  0  0  0  0  0  0  0  0  0
    0.3943   -1.2135    0.0000 C   0  0  0  0  0  0  0  0  0  0  0  0
   -1.0323   -0.7500    0.0000 N   0  0  0  0  0  0  0  0  0  0  0  0
   -2.2458   -1.6317    0.0000 C   0  0  0  0  0  0  0  0  0  0  0  0
   -2.2458   -3.1317    0.0000 C   0  0  0  0  0  0  0  0  0  0  0  0
   -3.6724   -3.5952    0.0000 C   0  0  0  0  0  0  0  0  0  0  0  0
   -4.1359   -5.0218    0.0000 O   0  0  0  0  0  0  0  0  0  0  0  0
   -5.6031   -5.3337    0.0000 C   0  0  0  0  0  0  0  0  0  0  0  0
   -6.0667   -6.7602    0.0000 C   0  0  0  0  0  0  0  0  0  0  0  0
   -7.5339   -7.0721    0.0000 C   0  0  0  0  0  0  0  0  0  0  0  0
   -7.9974   -8.4987    0.0000 C   0  0  0  0  0  0  0  0  0  0  0  0
   -6.9937   -9.6134    0.0000 C   0  0  0  0  0  0  0  0  0  0  0  0
   -5.5265   -9.3015    0.0000 C   0  0  0  0  0  0  0  0  0  0  0  0
   -5.0630   -7.8750    0.0000 C   0  0  0  0  0  0  0  0  0  0  0  0
   -3.5958   -7.5631    0.0000 S   0  0  0  0  0  0  0  0  0  0  0  0
   -2.1285   -7.2512    0.0000 C   0  0  0  0  0  0  0  0  0  0  0  0
   -3.9076   -6.0959    0.0000 O   0  0  0  0  0  0  0  0  0  0  0  0
   -3.2839   -9.0303    0.0000 O   0  0  0  0  0  0  0  0  0  0  0  0
   -4.5541   -2.3817    0.0000 C   0  0  0  0  0  0  0  0  0  0  0  0
   -6.0541   -2.3817    0.0000 C   0  0  0  0  0  0  0  0  0  0  0  0
   -7.5541   -2.3817    0.0000 N   0  0  0  0  0  0  0  0  0  0  0  0
   -3.6724   -1.1682    0.0000 S   0  0  0  0  0  0  0  0  0  0  0  0
   -1.0323    0.7500    0.0000 C   0  0  0  0  0  0  0  0  0  0  0  0
   -2.1470    1.7537    0.0000 C   0  0  0  0  0  0  0  0  0  0  0  0
   -1.8351    3.2209    0.0000 C   0  0  0  0  0  0  0  0  0  0  0  0
   -2.9499    4.2246    0.0000 O   0  0  0  0  0  0  0  0  0  0  0  0
   -4.3764    3.7611    0.0000 C   0  0  0  0  0  0  0  0  0  0  0  0
  1  2  1  0
  2  3  1  0
  3  4  2  0
  4  5  1  0
  5  6  1  0
  6  7  2  0
  7  8  1  0
  8  9  1  0
  9 10  2  0
 10 11  1  0
 11 12  1  0
 12 13  1  0
 13 14  1  0
 14 15  2  0
 15 16  1  0
 16 17  2  0
 17 18  1  0
 18 19  2  0
 19 20  1  0
 20 21  1  0
 20 22  2  0
 20 23  2  0
 11 24  2  0
 24 25  1  0
 25 26  3  0
 24 27  1  0
  8 28  1  0
 28 29  1  0
 29 30  2  0
 30 31  1  0
 31 32  1  0
 30  3  1  0
 28  5  2  0
 27  9  1  0
 19 14  1  0
M  END
>  <Compound_ID>  (385) 
CHEMBL373751

>  <Molecule Name>  (385) 
GSK-319347A

>  <Molecular Weight>  (385) 
469.54

>  <AlogP>  (385) 
3.96

>  <Smiles>  (385) 
COc1cc2ncn(-c3cc(OCc4ccccc4S(C)(=O)=O)c(C#N)s3)c2cc1OC

>  <Standard Type>  (385) 
Inhibition

>  <Standard Relation>  (385) 
'='

>  <Standard Units>  (385) 
%

>  <Standard Value>  (385) 
-8.27

>  <Assay ChEMBL ID>  (385) 
CHEMBL1962174

>  <Assay Description>  (385) 
GSK_PKIS: SYK mean inhibition at 0.1 uM [Nanosyn]

>  <BAO Format ID>  (385) 
BAO_0000357

>  <BAO Label>  (385) 
single protein format

>  <Assay Organism>  (385) 
None

>  <Target ChEMBL ID>  (385) 
CHEMBL2599

>  <Target Name>  (385) 
Tyrosine-protein kinase SYK

>  <Target Organism>  (385) 
Homo sapiens

>  <Target Type>  (385) 
SINGLE PROTEIN

>  <Document ChEMBL ID>  (385) 
CHEMBL1961873

>  <Source Description>  (385) 
GSK Published Kinase Inhibitor Set

>  <Document Journal>  (385) 
nan

>  <Document Year>  (385) 
nan

>  <Active>  (385) 
0.0

>  <bits>  (385) 
<rdkit.DataStructs.cDataStructs.ExplicitBitVect object at 0x00000193F33E57E0>

>  <Group>  (385) 
G2

$$$$

     RDKit          2D

 30 34  0  0  0  0  0  0  0  0999 V2000
    3.0000    0.0000    0.0000 C   0  0  0  0  0  0  0  0  0  0  0  0
    1.5000    0.0000    0.0000 C   0  0  0  0  0  0  0  0  0  0  0  0
    0.7500   -1.2990    0.0000 C   0  0  0  0  0  0  0  0  0  0  0  0
   -0.7500   -1.2990    0.0000 C   0  0  0  0  0  0  0  0  0  0  0  0
   -1.5000    0.0000    0.0000 C   0  0  0  0  0  0  0  0  0  0  0  0
   -2.9672    0.3119    0.0000 C   0  0  0  0  0  0  0  0  0  0  0  0
   -4.0819   -0.6918    0.0000 C   0  0  0  0  0  0  0  0  0  0  0  0
   -5.5085   -0.2283    0.0000 C   0  0  0  0  0  0  0  0  0  0  0  0
   -6.6232   -1.2320    0.0000 C   0  0  0  0  0  0  0  0  0  0  0  0
   -6.3114   -2.6992    0.0000 N   0  0  0  0  0  0  0  0  0  0  0  0
   -4.8848   -3.1627    0.0000 C   0  0  0  0  0  0  0  0  0  0  0  0
   -4.5729   -4.6300    0.0000 N   0  0  0  0  0  0  0  0  0  0  0  0
   -5.6876   -5.6337    0.0000 C   0  0  0  0  0  0  0  0  0  0  0  0
   -7.1142   -5.1701    0.0000 C   0  0  0  0  0  0  0  0  0  0  0  0
   -8.2289   -6.1738    0.0000 C   0  0  0  0  0  0  0  0  0  0  0  0
   -7.9171   -7.6411    0.0000 C   0  0  0  0  0  0  0  0  0  0  0  0
   -6.4905   -8.1046    0.0000 C   0  0  0  0  0  0  0  0  0  0  0  0
   -5.3758   -7.1009    0.0000 C   0  0  0  0  0  0  0  0  0  0  0  0
   -3.7701   -2.1590    0.0000 N   0  0  0  0  0  0  0  0  0  0  0  0
   -3.1240    1.8037    0.0000 C   0  0  0  0  0  0  0  0  0  0  0  0
   -4.4231    2.5537    0.0000 C   0  0  0  0  0  0  0  0  0  0  0  0
   -4.4231    4.0537    0.0000 C   0  0  0  0  0  0  0  0  0  0  0  0
   -5.7221    4.8037    0.0000 C   0  0  0  0  0  0  0  0  0  0  0  0
   -7.0211    4.0537    0.0000 C   0  0  0  0  0  0  0  0  0  0  0  0
   -8.3202    4.8037    0.0000 F   0  0  0  0  0  0  0  0  0  0  0  0
   -7.0211    2.5537    0.0000 C   0  0  0  0  0  0  0  0  0  0  0  0
   -5.7221    1.8037    0.0000 C   0  0  0  0  0  0  0  0  0  0  0  0
   -1.7537    2.4138    0.0000 N   0  0  0  0  0  0  0  0  0  0  0  0
   -0.7500    1.2990    0.0000 N   0  0  0  0  0  0  0  0  0  0  0  0
    0.7500    1.2990    0.0000 N   0  0  0  0  0  0  0  0  0  0  0  0
  1  2  1  0
  2  3  1  0
  3  4  2  0
  4  5  1  0
  5  6  2  0
  6  7  1  0
  7  8  2  0
  8  9  1  0
  9 10  2  0
 10 11  1  0
 11 12  1  0
 12 13  1  0
 13 14  2  0
 14 15  1  0
 15 16  2  0
 16 17  1  0
 17 18  2  0
 11 19  2  0
  6 20  1  0
 20 21  1  0
 21 22  2  0
 22 23  1  0
 23 24  2  0
 24 25  1  0
 24 26  1  0
 26 27  2  0
 20 28  2  0
 28 29  1  0
 29 30  1  0
 30  2  2  0
 29  5  1  0
 19  7  1  0
 27 21  1  0
 18 13  1  0
M  END
>  <Compound_ID>  (386) 
CHEMBL189459

>  <Molecule Name>  (386) 
GW833373X

>  <Molecular Weight>  (386) 
396.43

>  <AlogP>  (386) 
5.04

>  <Smiles>  (386) 
Cc1ccc2c(-c3ccnc(Nc4ccccc4)n3)c(-c3ccc(F)cc3)nn2n1

>  <Standard Type>  (386) 
Inhibition

>  <Standard Relation>  (386) 
'='

>  <Standard Units>  (386) 
%

>  <Standard Value>  (386) 
-4.62

>  <Assay ChEMBL ID>  (386) 
CHEMBL1962175

>  <Assay Description>  (386) 
GSK_PKIS: SYK mean inhibition at 1 uM [Nanosyn]

>  <BAO Format ID>  (386) 
BAO_0000357

>  <BAO Label>  (386) 
single protein format

>  <Assay Organism>  (386) 
None

>  <Target ChEMBL ID>  (386) 
CHEMBL2599

>  <Target Name>  (386) 
Tyrosine-protein kinase SYK

>  <Target Organism>  (386) 
Homo sapiens

>  <Target Type>  (386) 
SINGLE PROTEIN

>  <Document ChEMBL ID>  (386) 
CHEMBL1961873

>  <Source Description>  (386) 
GSK Published Kinase Inhibitor Set

>  <Document Journal>  (386) 
nan

>  <Document Year>  (386) 
nan

>  <Active>  (386) 
0.0

>  <bits>  (386) 
<rdkit.DataStructs.cDataStructs.ExplicitBitVect object at 0x00000193F33E7450>

>  <Group>  (386) 
G2

$$$$

     RDKit          2D

 21 24  0  0  0  0  0  0  0  0999 V2000
    3.3287    1.8373    0.0000 O   0  0  0  0  0  0  0  0  0  0  0  0
    2.3250    2.9520    0.0000 C   0  0  0  0  0  0  0  0  0  0  0  0
    0.8578    2.6401    0.0000 N   0  0  0  0  0  0  0  0  0  0  0  0
    0.3943    1.2135    0.0000 C   0  0  0  0  0  0  0  0  0  0  0  0
    1.2760    0.0000    0.0000 N   0  0  0  0  0  0  0  0  0  0  0  0
    0.3943   -1.2135    0.0000 N   0  0  0  0  0  0  0  0  0  0  0  0
   -1.0323   -0.7500    0.0000 C   0  0  0  0  0  0  0  0  0  0  0  0
   -2.3313   -1.5000    0.0000 N   0  0  0  0  0  0  0  0  0  0  0  0
   -3.6304   -0.7500    0.0000 C   0  0  0  0  0  0  0  0  0  0  0  0
   -4.9294   -1.5000    0.0000 C   0  0  0  0  0  0  0  0  0  0  0  0
   -5.0862   -2.9918    0.0000 C   0  0  0  0  0  0  0  0  0  0  0  0
   -6.5534   -3.3037    0.0000 C   0  0  0  0  0  0  0  0  0  0  0  0
   -7.3034   -2.0046    0.0000 C   0  0  0  0  0  0  0  0  0  0  0  0
   -6.2997   -0.8899    0.0000 O   0  0  0  0  0  0  0  0  0  0  0  0
   -3.6304    0.7500    0.0000 C   0  0  0  0  0  0  0  0  0  0  0  0
   -4.9294    1.5000    0.0000 Br  0  0  0  0  0  0  0  0  0  0  0  0
   -2.3313    1.5000    0.0000 C   0  0  0  0  0  0  0  0  0  0  0  0
   -1.0323    0.7500    0.0000 C   0  0  0  0  0  0  0  0  0  0  0  0
    2.7886    4.3786    0.0000 C   0  0  0  0  0  0  0  0  0  0  0  0
    2.4767    5.8458    0.0000 C   0  0  0  0  0  0  0  0  0  0  0  0
    3.9033    5.3823    0.0000 C   0  0  0  0  0  0  0  0  0  0  0  0
  1  2  2  0
  2  3  1  0
  3  4  1  0
  4  5  2  0
  5  6  1  0
  6  7  1  0
  7  8  2  0
  8  9  1  0
  9 10  1  0
 10 11  2  0
 11 12  1  0
 12 13  2  0
 13 14  1  0
  9 15  2  0
 15 16  1  0
 15 17  1  0
 17 18  2  0
  2 19  1  0
 19 20  1  0
 20 21  1  0
 18  4  1  0
 21 19  1  0
 18  7  1  0
 14 10  1  0
M  END
>  <Compound_ID>  (387) 
CHEMBL408564

>  <Molecule Name>  (387) 
nan

>  <Molecular Weight>  (387) 
347.17

>  <AlogP>  (387) 
3.33

>  <Smiles>  (387) 
O=C(Nc1n[nH]c2nc(-c3ccco3)c(Br)cc12)C1CC1

>  <Standard Type>  (387) 
Inhibition

>  <Standard Relation>  (387) 
'='

>  <Standard Units>  (387) 
%

>  <Standard Value>  (387) 
0.12

>  <Assay ChEMBL ID>  (387) 
CHEMBL1962174

>  <Assay Description>  (387) 
GSK_PKIS: SYK mean inhibition at 0.1 uM [Nanosyn]

>  <BAO Format ID>  (387) 
BAO_0000357

>  <BAO Label>  (387) 
single protein format

>  <Assay Organism>  (387) 
None

>  <Target ChEMBL ID>  (387) 
CHEMBL2599

>  <Target Name>  (387) 
Tyrosine-protein kinase SYK

>  <Target Organism>  (387) 
Homo sapiens

>  <Target Type>  (387) 
SINGLE PROTEIN

>  <Document ChEMBL ID>  (387) 
CHEMBL1961873

>  <Source Description>  (387) 
GSK Published Kinase Inhibitor Set

>  <Document Journal>  (387) 
nan

>  <Document Year>  (387) 
nan

>  <Active>  (387) 
0.0

>  <bits>  (387) 
<rdkit.DataStructs.cDataStructs.ExplicitBitVect object at 0x00000193F33E6960>

>  <Group>  (387) 
G2

$$$$

     RDKit          2D

 30 33  0  0  0  0  0  0  0  0999 V2000
   -3.0000   -2.5981    0.0000 C   0  0  0  0  0  0  0  0  0  0  0  0
   -1.5000   -2.5981    0.0000 N   0  0  0  0  0  0  0  0  0  0  0  0
   -0.7500   -3.8971    0.0000 C   0  0  0  0  0  0  0  0  0  0  0  0
   -1.5000   -5.1962    0.0000 O   0  0  0  0  0  0  0  0  0  0  0  0
    0.7500   -3.8971    0.0000 C   0  0  0  0  0  0  0  0  0  0  0  0
    1.5000   -5.1962    0.0000 O   0  0  0  0  0  0  0  0  0  0  0  0
    0.7500   -6.4952    0.0000 C   0  0  0  0  0  0  0  0  0  0  0  0
   -0.7500   -6.4952    0.0000 C   0  0  0  0  0  0  0  0  0  0  0  0
   -1.5000   -7.7942    0.0000 C   0  0  0  0  0  0  0  0  0  0  0  0
   -0.7500   -9.0933    0.0000 C   0  0  0  0  0  0  0  0  0  0  0  0
   -1.5000  -10.3923    0.0000 F   0  0  0  0  0  0  0  0  0  0  0  0
    0.7500   -9.0933    0.0000 C   0  0  0  0  0  0  0  0  0  0  0  0
    1.5000   -7.7942    0.0000 C   0  0  0  0  0  0  0  0  0  0  0  0
    3.0000   -7.7942    0.0000 F   0  0  0  0  0  0  0  0  0  0  0  0
    1.5000   -2.5981    0.0000 C   0  0  0  0  0  0  0  0  0  0  0  0
    0.7500   -1.2990    0.0000 C   0  0  0  0  0  0  0  0  0  0  0  0
    1.5000    0.0000    0.0000 C   0  0  0  0  0  0  0  0  0  0  0  0
    0.7500    1.2990    0.0000 N   0  0  0  0  0  0  0  0  0  0  0  0
   -0.7500    1.2990    0.0000 C   0  0  0  0  0  0  0  0  0  0  0  0
   -1.5000    2.5981    0.0000 N   0  0  0  0  0  0  0  0  0  0  0  0
   -0.7500    3.8971    0.0000 C   0  0  0  0  0  0  0  0  0  0  0  0
   -1.5000    5.1962    0.0000 C   0  0  0  0  0  0  0  0  0  0  0  0
   -0.7500    6.4952    0.0000 C   0  0  0  0  0  0  0  0  0  0  0  0
    0.7500    6.4952    0.0000 C   0  0  0  0  0  0  0  0  0  0  0  0
    1.5000    7.7942    0.0000 C   0  0  0  0  0  0  0  0  0  0  0  0
    0.7500    9.0933    0.0000 C   0  0  0  0  0  0  0  0  0  0  0  0
   -0.7500    9.0933    0.0000 C   0  0  0  0  0  0  0  0  0  0  0  0
   -1.5000    7.7942    0.0000 N   0  0  0  0  0  0  0  0  0  0  0  0
   -1.5000    0.0000    0.0000 N   0  0  0  0  0  0  0  0  0  0  0  0
   -0.7500   -1.2990    0.0000 C   0  0  0  0  0  0  0  0  0  0  0  0
  1  2  1  0
  2  3  1  0
  3  4  2  0
  3  5  1  0
  5  6  1  0
  6  7  1  0
  7  8  2  0
  8  9  1  0
  9 10  2  0
 10 11  1  0
 10 12  1  0
 12 13  2  0
 13 14  1  0
  5 15  2  0
 15 16  1  0
 16 17  2  0
 17 18  1  0
 18 19  2  0
 19 20  1  0
 20 21  1  0
 21 22  1  0
 22 23  1  0
 23 24  2  0
 24 25  1  0
 25 26  2  0
 26 27  1  0
 27 28  2  0
 19 29  1  0
 29 30  2  0
 30  2  1  0
 13  7  1  0
 30 16  1  0
 28 23  1  0
M  END
>  <Compound_ID>  (388) 
CHEMBL3746951

>  <Molecule Name>  (388) 
nan

>  <Molecular Weight>  (388) 
409.4

>  <AlogP>  (388) 
3.45

>  <Smiles>  (388) 
Cn1c(=O)c(Oc2ccc(F)cc2F)cc2cnc(NCCc3ccccn3)nc21

>  <Standard Type>  (388) 
Inhibition

>  <Standard Relation>  (388) 
'='

>  <Standard Units>  (388) 
%

>  <Standard Value>  (388) 
3.0

>  <Assay ChEMBL ID>  (388) 
CHEMBL3750776

>  <Assay Description>  (388) 
Inhibition of SYK (unknown origin) at 10 uM

>  <BAO Format ID>  (388) 
BAO_0000357

>  <BAO Label>  (388) 
single protein format

>  <Assay Organism>  (388) 
Homo sapiens

>  <Target ChEMBL ID>  (388) 
CHEMBL2599

>  <Target Name>  (388) 
Tyrosine-protein kinase SYK

>  <Target Organism>  (388) 
Homo sapiens

>  <Target Type>  (388) 
SINGLE PROTEIN

>  <Document ChEMBL ID>  (388) 
CHEMBL3745672

>  <Source Description>  (388) 
Scientific Literature

>  <Document Journal>  (388) 
Bioorg Med Chem Lett

>  <Document Year>  (388) 
2016.0

>  <Active>  (388) 
0.0

>  <bits>  (388) 
<rdkit.DataStructs.cDataStructs.ExplicitBitVect object at 0x00000193F33E6C70>

>  <Group>  (388) 
G2

$$$$

     RDKit          2D

 25 28  0  0  0  0  0  0  0  0999 V2000
   -3.6221    4.6871    0.0000 C   0  0  0  0  0  0  0  0  0  0  0  0
   -5.0487    4.2236    0.0000 C   0  0  0  0  0  0  0  0  0  0  0  0
   -6.1634    5.2273    0.0000 C   0  0  0  0  0  0  0  0  0  0  0  0
   -5.3605    2.7564    0.0000 C   0  0  0  0  0  0  0  0  0  0  0  0
   -4.2458    1.7527    0.0000 C   0  0  0  0  0  0  0  0  0  0  0  0
   -4.5577    0.2855    0.0000 C   0  0  0  0  0  0  0  0  0  0  0  0
   -5.9843   -0.1781    0.0000 C   0  0  0  0  0  0  0  0  0  0  0  0
   -6.2961   -1.6453    0.0000 N   0  0  0  0  0  0  0  0  0  0  0  0
   -5.1814   -2.6490    0.0000 C   0  0  0  0  0  0  0  0  0  0  0  0
   -5.4933   -4.1162    0.0000 N   0  0  0  0  0  0  0  0  0  0  0  0
   -4.3786   -5.1199    0.0000 C   0  0  0  0  0  0  0  0  0  0  0  0
   -2.9520   -4.6564    0.0000 C   0  0  0  0  0  0  0  0  0  0  0  0
   -2.6401   -3.1891    0.0000 C   0  0  0  0  0  0  0  0  0  0  0  0
   -1.2135   -2.7256    0.0000 C   0  0  0  0  0  0  0  0  0  0  0  0
   -0.0000   -3.6073    0.0000 C   0  0  0  0  0  0  0  0  0  0  0  0
    1.2135   -2.7256    0.0000 N   0  0  0  0  0  0  0  0  0  0  0  0
    0.7500   -1.2990    0.0000 N   0  0  0  0  0  0  0  0  0  0  0  0
    1.5000    0.0000    0.0000 N   0  0  0  0  0  0  0  0  0  0  0  0
    0.7500    1.2990    0.0000 C   0  0  0  0  0  0  0  0  0  0  0  0
   -0.7500    1.2990    0.0000 C   0  0  0  0  0  0  0  0  0  0  0  0
   -1.5000    0.0000    0.0000 C   0  0  0  0  0  0  0  0  0  0  0  0
   -0.7500   -1.2990    0.0000 C   0  0  0  0  0  0  0  0  0  0  0  0
   -3.7548   -2.1855    0.0000 N   0  0  0  0  0  0  0  0  0  0  0  0
   -7.0990    0.8256    0.0000 C   0  0  0  0  0  0  0  0  0  0  0  0
   -6.7871    2.2929    0.0000 C   0  0  0  0  0  0  0  0  0  0  0  0
  1  2  1  0
  2  3  1  0
  2  4  1  0
  4  5  2  0
  5  6  1  0
  6  7  2  0
  7  8  1  0
  8  9  1  0
  9 10  2  0
 10 11  1  0
 11 12  2  0
 12 13  1  0
 13 14  1  0
 14 15  1  0
 15 16  2  0
 16 17  1  0
 17 18  1  0
 18 19  2  0
 19 20  1  0
 20 21  2  0
 21 22  1  0
 13 23  2  0
  7 24  1  0
 24 25  2  0
 25  4  1  0
 23  9  1  0
 22 14  2  0
 22 17  1  0
M  END
>  <Compound_ID>  (389) 
CHEMBL359963

>  <Molecule Name>  (389) 
GW805758X

>  <Molecular Weight>  (389) 
330.4

>  <AlogP>  (389) 
4.05

>  <Smiles>  (389) 
CC(C)c1ccc(Nc2nccc(-c3cnn4ncccc34)n2)cc1

>  <Standard Type>  (389) 
Inhibition

>  <Standard Relation>  (389) 
'='

>  <Standard Units>  (389) 
%

>  <Standard Value>  (389) 
-6.64

>  <Assay ChEMBL ID>  (389) 
CHEMBL1962174

>  <Assay Description>  (389) 
GSK_PKIS: SYK mean inhibition at 0.1 uM [Nanosyn]

>  <BAO Format ID>  (389) 
BAO_0000357

>  <BAO Label>  (389) 
single protein format

>  <Assay Organism>  (389) 
None

>  <Target ChEMBL ID>  (389) 
CHEMBL2599

>  <Target Name>  (389) 
Tyrosine-protein kinase SYK

>  <Target Organism>  (389) 
Homo sapiens

>  <Target Type>  (389) 
SINGLE PROTEIN

>  <Document ChEMBL ID>  (389) 
CHEMBL1961873

>  <Source Description>  (389) 
GSK Published Kinase Inhibitor Set

>  <Document Journal>  (389) 
nan

>  <Document Year>  (389) 
nan

>  <Active>  (389) 
0.0

>  <bits>  (389) 
<rdkit.DataStructs.cDataStructs.ExplicitBitVect object at 0x00000193F33E75A0>

>  <Group>  (389) 
G2

$$$$

     RDKit          2D

 22 24  0  0  0  0  0  0  0  0999 V2000
    3.7500   -1.2990    0.0000 N   0  0  0  0  0  0  0  0  0  0  0  0
    3.0000    0.0000    0.0000 C   0  0  0  0  0  0  0  0  0  0  0  0
    3.7500    1.2990    0.0000 O   0  0  0  0  0  0  0  0  0  0  0  0
    1.5000    0.0000    0.0000 C   0  0  0  0  0  0  0  0  0  0  0  0
    0.7500   -1.2990    0.0000 C   0  0  0  0  0  0  0  0  0  0  0  0
   -0.7500   -1.2990    0.0000 C   0  0  0  0  0  0  0  0  0  0  0  0
   -1.5000   -2.5981    0.0000 C   0  0  0  0  0  0  0  0  0  0  0  0
   -3.0000   -2.5981    0.0000 C   0  0  0  0  0  0  0  0  0  0  0  0
   -3.7500   -3.8971    0.0000 C   0  0  0  0  0  0  0  0  0  0  0  0
   -3.0000   -5.1962    0.0000 N   0  0  0  0  0  0  0  0  0  0  0  0
   -1.5000   -5.1962    0.0000 C   0  0  0  0  0  0  0  0  0  0  0  0
   -0.7500   -3.8971    0.0000 C   0  0  0  0  0  0  0  0  0  0  0  0
   -1.5000    0.0000    0.0000 C   0  0  0  0  0  0  0  0  0  0  0  0
   -0.7500    1.2990    0.0000 C   0  0  0  0  0  0  0  0  0  0  0  0
   -1.5000    2.5981    0.0000 C   0  0  0  0  0  0  0  0  0  0  0  0
   -0.7500    3.8971    0.0000 C   0  0  0  0  0  0  0  0  0  0  0  0
   -1.5000    5.1962    0.0000 C   0  0  0  0  0  0  0  0  0  0  0  0
   -3.0000    5.1962    0.0000 C   0  0  0  0  0  0  0  0  0  0  0  0
   -3.7500    3.8971    0.0000 C   0  0  0  0  0  0  0  0  0  0  0  0
   -3.0000    2.5981    0.0000 C   0  0  0  0  0  0  0  0  0  0  0  0
    0.7500    1.2990    0.0000 C   0  0  0  0  0  0  0  0  0  0  0  0
    1.5000    2.5981    0.0000 N   0  0  0  0  0  0  0  0  0  0  0  0
  1  2  1  0
  2  3  2  0
  2  4  1  0
  4  5  2  0
  5  6  1  0
  6  7  1  0
  7  8  2  0
  8  9  1  0
  9 10  2  0
 10 11  1  0
 11 12  2  0
  6 13  2  0
 13 14  1  0
 14 15  1  0
 15 16  2  0
 16 17  1  0
 17 18  2  0
 18 19  1  0
 19 20  2  0
 14 21  2  0
 21 22  1  0
 21  4  1  0
 12  7  1  0
 20 15  1  0
M  END
>  <Compound_ID>  (390) 
CHEMBL230911

>  <Molecule Name>  (390) 
GSK-625137A

>  <Molecular Weight>  (390) 
289.34

>  <AlogP>  (390) 
3.10

>  <Smiles>  (390) 
NC(=O)c1cc(-c2ccncc2)cc(-c2ccccc2)c1N

>  <Standard Type>  (390) 
Inhibition

>  <Standard Relation>  (390) 
'='

>  <Standard Units>  (390) 
%

>  <Standard Value>  (390) 
1.64

>  <Assay ChEMBL ID>  (390) 
CHEMBL1962175

>  <Assay Description>  (390) 
GSK_PKIS: SYK mean inhibition at 1 uM [Nanosyn]

>  <BAO Format ID>  (390) 
BAO_0000357

>  <BAO Label>  (390) 
single protein format

>  <Assay Organism>  (390) 
None

>  <Target ChEMBL ID>  (390) 
CHEMBL2599

>  <Target Name>  (390) 
Tyrosine-protein kinase SYK

>  <Target Organism>  (390) 
Homo sapiens

>  <Target Type>  (390) 
SINGLE PROTEIN

>  <Document ChEMBL ID>  (390) 
CHEMBL1961873

>  <Source Description>  (390) 
GSK Published Kinase Inhibitor Set

>  <Document Journal>  (390) 
nan

>  <Document Year>  (390) 
nan

>  <Active>  (390) 
0.0

>  <bits>  (390) 
<rdkit.DataStructs.cDataStructs.ExplicitBitVect object at 0x00000193F33E4890>

>  <Group>  (390) 
G2

$$$$

     RDKit          2D

 23 25  0  0  0  0  0  0  0  0999 V2000
  -10.8878   -4.5031    0.0000 C   0  0  0  0  0  0  0  0  0  0  0  0
   -9.7730   -5.5068    0.0000 S   0  0  0  0  0  0  0  0  0  0  0  0
   -8.7693   -4.3921    0.0000 O   0  0  0  0  0  0  0  0  0  0  0  0
  -10.7767   -6.6215    0.0000 O   0  0  0  0  0  0  0  0  0  0  0  0
   -8.6583   -6.5105    0.0000 N   0  0  0  0  0  0  0  0  0  0  0  0
   -7.2317   -6.0469    0.0000 C   0  0  0  0  0  0  0  0  0  0  0  0
   -6.9199   -4.5797    0.0000 C   0  0  0  0  0  0  0  0  0  0  0  0
   -5.4933   -4.1162    0.0000 C   0  0  0  0  0  0  0  0  0  0  0  0
   -4.3786   -5.1199    0.0000 C   0  0  0  0  0  0  0  0  0  0  0  0
   -2.9520   -4.6564    0.0000 N   0  0  0  0  0  0  0  0  0  0  0  0
   -2.6401   -3.1891    0.0000 C   0  0  0  0  0  0  0  0  0  0  0  0
   -1.2135   -2.7256    0.0000 C   0  0  0  0  0  0  0  0  0  0  0  0
   -0.0000   -3.6073    0.0000 C   0  0  0  0  0  0  0  0  0  0  0  0
    0.0000   -5.1073    0.0000 O   0  0  0  0  0  0  0  0  0  0  0  0
    1.2135   -2.7256    0.0000 N   0  0  0  0  0  0  0  0  0  0  0  0
    0.7500   -1.2990    0.0000 C   0  0  0  0  0  0  0  0  0  0  0  0
    1.5000    0.0000    0.0000 C   0  0  0  0  0  0  0  0  0  0  0  0
    0.7500    1.2990    0.0000 C   0  0  0  0  0  0  0  0  0  0  0  0
   -0.7500    1.2990    0.0000 C   0  0  0  0  0  0  0  0  0  0  0  0
   -1.5000    0.0000    0.0000 C   0  0  0  0  0  0  0  0  0  0  0  0
   -0.7500   -1.2990    0.0000 C   0  0  0  0  0  0  0  0  0  0  0  0
   -4.6904   -6.5871    0.0000 C   0  0  0  0  0  0  0  0  0  0  0  0
   -6.1170   -7.0506    0.0000 C   0  0  0  0  0  0  0  0  0  0  0  0
  1  2  1  0
  2  3  2  0
  2  4  2  0
  2  5  1  0
  5  6  1  0
  6  7  2  0
  7  8  1  0
  8  9  2  0
  9 10  1  0
 10 11  1  0
 11 12  2  0
 12 13  1  0
 13 14  2  0
 13 15  1  0
 15 16  1  0
 16 17  2  0
 17 18  1  0
 18 19  2  0
 19 20  1  0
 20 21  2  0
  9 22  1  0
 22 23  2  0
 23  6  1  0
 21 12  1  0
 21 16  1  0
M  END
>  <Compound_ID>  (391) 
CHEMBL1794058

>  <Molecule Name>  (391) 
GW278681X

>  <Molecular Weight>  (391) 
329.38

>  <AlogP>  (391) 
2.46

>  <Smiles>  (391) 
CS(=O)(=O)Nc1ccc(N/C=C2\C(=O)Nc3ccccc32)cc1

>  <Standard Type>  (391) 
Inhibition

>  <Standard Relation>  (391) 
'='

>  <Standard Units>  (391) 
%

>  <Standard Value>  (391) 
-3.83

>  <Assay ChEMBL ID>  (391) 
CHEMBL1962175

>  <Assay Description>  (391) 
GSK_PKIS: SYK mean inhibition at 1 uM [Nanosyn]

>  <BAO Format ID>  (391) 
BAO_0000357

>  <BAO Label>  (391) 
single protein format

>  <Assay Organism>  (391) 
None

>  <Target ChEMBL ID>  (391) 
CHEMBL2599

>  <Target Name>  (391) 
Tyrosine-protein kinase SYK

>  <Target Organism>  (391) 
Homo sapiens

>  <Target Type>  (391) 
SINGLE PROTEIN

>  <Document ChEMBL ID>  (391) 
CHEMBL1961873

>  <Source Description>  (391) 
GSK Published Kinase Inhibitor Set

>  <Document Journal>  (391) 
nan

>  <Document Year>  (391) 
nan

>  <Active>  (391) 
0.0

>  <bits>  (391) 
<rdkit.DataStructs.cDataStructs.ExplicitBitVect object at 0x00000193F33E6650>

>  <Group>  (391) 
G2

$$$$

     RDKit          2D

 18 20  0  0  0  0  0  0  0  0999 V2000
   -8.0346   -3.5760    0.0000 C   0  0  0  0  0  0  0  0  0  0  0  0
   -6.9199   -4.5797    0.0000 O   0  0  0  0  0  0  0  0  0  0  0  0
   -5.4933   -4.1162    0.0000 C   0  0  0  0  0  0  0  0  0  0  0  0
   -5.1814   -2.6490    0.0000 C   0  0  0  0  0  0  0  0  0  0  0  0
   -3.7548   -2.1855    0.0000 C   0  0  0  0  0  0  0  0  0  0  0  0
   -2.6401   -3.1891    0.0000 C   0  0  0  0  0  0  0  0  0  0  0  0
   -1.2135   -2.7256    0.0000 C   0  0  0  0  0  0  0  0  0  0  0  0
   -0.0000   -3.6073    0.0000 C   0  0  0  0  0  0  0  0  0  0  0  0
    1.2135   -2.7256    0.0000 O   0  0  0  0  0  0  0  0  0  0  0  0
    0.7500   -1.2990    0.0000 C   0  0  0  0  0  0  0  0  0  0  0  0
    1.5000    0.0000    0.0000 N   0  0  0  0  0  0  0  0  0  0  0  0
    0.7500    1.2990    0.0000 C   0  0  0  0  0  0  0  0  0  0  0  0
   -0.7500    1.2990    0.0000 N   0  0  0  0  0  0  0  0  0  0  0  0
   -1.5000    0.0000    0.0000 C   0  0  0  0  0  0  0  0  0  0  0  0
   -3.0000    0.0000    0.0000 N   0  0  0  0  0  0  0  0  0  0  0  0
   -0.7500   -1.2990    0.0000 C   0  0  0  0  0  0  0  0  0  0  0  0
   -2.9520   -4.6564    0.0000 C   0  0  0  0  0  0  0  0  0  0  0  0
   -4.3786   -5.1199    0.0000 C   0  0  0  0  0  0  0  0  0  0  0  0
  1  2  1  0
  2  3  1  0
  3  4  2  0
  4  5  1  0
  5  6  2  0
  6  7  1  0
  7  8  2  0
  8  9  1  0
  9 10  1  0
 10 11  2  0
 11 12  1  0
 12 13  2  0
 13 14  1  0
 14 15  1  0
 14 16  2  0
  6 17  1  0
 17 18  2  0
 18  3  1  0
 16  7  1  0
 16 10  1  0
M  END
>  <Compound_ID>  (392) 
CHEMBL196022

>  <Molecule Name>  (392) 
GW642125X

>  <Molecular Weight>  (392) 
241.25

>  <AlogP>  (392) 
2.48

>  <Smiles>  (392) 
COc1ccc(-c2coc3ncnc(N)c23)cc1

>  <Standard Type>  (392) 
Inhibition

>  <Standard Relation>  (392) 
'='

>  <Standard Units>  (392) 
%

>  <Standard Value>  (392) 
-0.96

>  <Assay ChEMBL ID>  (392) 
CHEMBL1962175

>  <Assay Description>  (392) 
GSK_PKIS: SYK mean inhibition at 1 uM [Nanosyn]

>  <BAO Format ID>  (392) 
BAO_0000357

>  <BAO Label>  (392) 
single protein format

>  <Assay Organism>  (392) 
None

>  <Target ChEMBL ID>  (392) 
CHEMBL2599

>  <Target Name>  (392) 
Tyrosine-protein kinase SYK

>  <Target Organism>  (392) 
Homo sapiens

>  <Target Type>  (392) 
SINGLE PROTEIN

>  <Document ChEMBL ID>  (392) 
CHEMBL1961873

>  <Source Description>  (392) 
GSK Published Kinase Inhibitor Set

>  <Document Journal>  (392) 
nan

>  <Document Year>  (392) 
nan

>  <Active>  (392) 
0.0

>  <bits>  (392) 
<rdkit.DataStructs.cDataStructs.ExplicitBitVect object at 0x00000193F33E7A70>

>  <Group>  (392) 
G2

$$$$

     RDKit          2D

 30 33  0  0  0  0  0  0  0  0999 V2000
    3.7500   -1.2990    0.0000 N   0  0  0  0  0  0  0  0  0  0  0  0
    3.0000    0.0000    0.0000 C   0  0  0  0  0  0  0  0  0  0  0  0
    3.7500    1.2990    0.0000 O   0  0  0  0  0  0  0  0  0  0  0  0
    1.5000    0.0000    0.0000 C   0  0  0  0  0  0  0  0  0  0  0  0
    0.7500   -1.2990    0.0000 C   0  0  0  0  0  0  0  0  0  0  0  0
   -0.7500   -1.2990    0.0000 C   0  0  0  0  0  0  0  0  0  0  0  0
   -1.5000    0.0000    0.0000 C   0  0  0  0  0  0  0  0  0  0  0  0
   -2.9672    0.3119    0.0000 C   0  0  0  0  0  0  0  0  0  0  0  0
   -4.0819   -0.6918    0.0000 C   0  0  0  0  0  0  0  0  0  0  0  0
   -5.5085   -0.2283    0.0000 C   0  0  0  0  0  0  0  0  0  0  0  0
   -6.6232   -1.2320    0.0000 C   0  0  0  0  0  0  0  0  0  0  0  0
   -6.3114   -2.6992    0.0000 N   0  0  0  0  0  0  0  0  0  0  0  0
   -4.8848   -3.1627    0.0000 C   0  0  0  0  0  0  0  0  0  0  0  0
   -4.5729   -4.6300    0.0000 N   0  0  0  0  0  0  0  0  0  0  0  0
   -5.6876   -5.6337    0.0000 C   0  0  0  0  0  0  0  0  0  0  0  0
   -5.3758   -7.1009    0.0000 C   0  0  0  0  0  0  0  0  0  0  0  0
   -6.4905   -8.1046    0.0000 C   0  0  0  0  0  0  0  0  0  0  0  0
   -6.1786   -9.5718    0.0000 O   0  0  0  0  0  0  0  0  0  0  0  0
   -3.7701   -2.1590    0.0000 N   0  0  0  0  0  0  0  0  0  0  0  0
   -3.1240    1.8037    0.0000 C   0  0  0  0  0  0  0  0  0  0  0  0
   -4.4231    2.5537    0.0000 C   0  0  0  0  0  0  0  0  0  0  0  0
   -4.4231    4.0537    0.0000 C   0  0  0  0  0  0  0  0  0  0  0  0
   -5.7221    4.8037    0.0000 C   0  0  0  0  0  0  0  0  0  0  0  0
   -7.0211    4.0537    0.0000 C   0  0  0  0  0  0  0  0  0  0  0  0
   -8.3202    4.8037    0.0000 F   0  0  0  0  0  0  0  0  0  0  0  0
   -7.0211    2.5537    0.0000 C   0  0  0  0  0  0  0  0  0  0  0  0
   -5.7221    1.8037    0.0000 C   0  0  0  0  0  0  0  0  0  0  0  0
   -1.7537    2.4138    0.0000 N   0  0  0  0  0  0  0  0  0  0  0  0
   -0.7500    1.2990    0.0000 N   0  0  0  0  0  0  0  0  0  0  0  0
    0.7500    1.2990    0.0000 C   0  0  0  0  0  0  0  0  0  0  0  0
  1  2  1  0
  2  3  2  0
  2  4  1  0
  4  5  1  0
  5  6  2  0
  6  7  1  0
  7  8  2  0
  8  9  1  0
  9 10  2  0
 10 11  1  0
 11 12  2  0
 12 13  1  0
 13 14  1  0
 14 15  1  0
 15 16  1  0
 16 17  1  0
 17 18  1  0
 13 19  2  0
  8 20  1  0
 20 21  1  0
 21 22  2  0
 22 23  1  0
 23 24  2  0
 24 25  1  0
 24 26  1  0
 26 27  2  0
 20 28  2  0
 28 29  1  0
 29 30  1  0
 30  4  2  0
 29  7  1  0
 19  9  1  0
 27 21  1  0
M  END
>  <Compound_ID>  (393) 
CHEMBL1909404

>  <Molecule Name>  (393) 
GW581744X

>  <Molecular Weight>  (393) 
406.42

>  <AlogP>  (393) 
2.49

>  <Smiles>  (393) 
NC(=O)c1ccc2c(-c3ccnc(NCCCO)n3)c(-c3ccc(F)cc3)nn2c1

>  <Standard Type>  (393) 
Inhibition

>  <Standard Relation>  (393) 
'='

>  <Standard Units>  (393) 
%

>  <Standard Value>  (393) 
-0.6

>  <Assay ChEMBL ID>  (393) 
CHEMBL1962175

>  <Assay Description>  (393) 
GSK_PKIS: SYK mean inhibition at 1 uM [Nanosyn]

>  <BAO Format ID>  (393) 
BAO_0000357

>  <BAO Label>  (393) 
single protein format

>  <Assay Organism>  (393) 
None

>  <Target ChEMBL ID>  (393) 
CHEMBL2599

>  <Target Name>  (393) 
Tyrosine-protein kinase SYK

>  <Target Organism>  (393) 
Homo sapiens

>  <Target Type>  (393) 
SINGLE PROTEIN

>  <Document ChEMBL ID>  (393) 
CHEMBL1961873

>  <Source Description>  (393) 
GSK Published Kinase Inhibitor Set

>  <Document Journal>  (393) 
nan

>  <Document Year>  (393) 
nan

>  <Active>  (393) 
0.0

>  <bits>  (393) 
<rdkit.DataStructs.cDataStructs.ExplicitBitVect object at 0x00000193F33E7B50>

>  <Group>  (393) 
G2

$$$$

     RDKit          2D

 20 22  0  0  0  0  0  0  0  0999 V2000
    1.8478   -6.4639    0.0000 O   0  0  0  0  0  0  0  0  0  0  0  0
    2.0046   -4.9721    0.0000 C   0  0  0  0  0  0  0  0  0  0  0  0
    3.3037   -4.2221    0.0000 N   0  0  0  0  0  0  0  0  0  0  0  0
    2.9918   -2.7549    0.0000 C   0  0  0  0  0  0  0  0  0  0  0  0
    3.9955   -1.6402    0.0000 O   0  0  0  0  0  0  0  0  0  0  0  0
    1.5000   -2.5981    0.0000 C   0  0  0  0  0  0  0  0  0  0  0  0
    0.7500   -1.2990    0.0000 C   0  0  0  0  0  0  0  0  0  0  0  0
    1.5000    0.0000    0.0000 C   0  0  0  0  0  0  0  0  0  0  0  0
    0.7500    1.2990    0.0000 C   0  0  0  0  0  0  0  0  0  0  0  0
   -0.7500    1.2990    0.0000 C   0  0  0  0  0  0  0  0  0  0  0  0
   -1.5000    0.0000    0.0000 C   0  0  0  0  0  0  0  0  0  0  0  0
   -0.7500   -1.2990    0.0000 C   0  0  0  0  0  0  0  0  0  0  0  0
    0.8899   -3.9684    0.0000 C   0  0  0  0  0  0  0  0  0  0  0  0
   -0.5773   -4.2803    0.0000 N   0  0  0  0  0  0  0  0  0  0  0  0
   -1.0409   -5.7068    0.0000 C   0  0  0  0  0  0  0  0  0  0  0  0
   -2.5081   -6.0187    0.0000 C   0  0  0  0  0  0  0  0  0  0  0  0
   -2.9716   -7.4453    0.0000 C   0  0  0  0  0  0  0  0  0  0  0  0
   -1.9679   -8.5600    0.0000 C   0  0  0  0  0  0  0  0  0  0  0  0
   -0.5007   -8.2481    0.0000 C   0  0  0  0  0  0  0  0  0  0  0  0
   -0.0372   -6.8216    0.0000 C   0  0  0  0  0  0  0  0  0  0  0  0
  1  2  2  0
  2  3  1  0
  3  4  1  0
  4  5  2  0
  4  6  1  0
  6  7  1  0
  7  8  2  0
  8  9  1  0
  9 10  2  0
 10 11  1  0
 11 12  2  0
  6 13  2  0
 13 14  1  0
 14 15  1  0
 15 16  2  0
 16 17  1  0
 17 18  2  0
 18 19  1  0
 19 20  2  0
 13  2  1  0
 20 15  1  0
 12  7  1  0
M  END
>  <Compound_ID>  (394) 
CHEMBL346551

>  <Molecule Name>  (394) 
nan

>  <Molecular Weight>  (394) 
264.28

>  <AlogP>  (394) 
2.17

>  <Smiles>  (394) 
O=C1NC(=O)C(c2ccccc2)=C1Nc1ccccc1

>  <Standard Type>  (394) 
Inhibition

>  <Standard Relation>  (394) 
'='

>  <Standard Units>  (394) 
%

>  <Standard Value>  (394) 
1.94

>  <Assay ChEMBL ID>  (394) 
CHEMBL1962175

>  <Assay Description>  (394) 
GSK_PKIS: SYK mean inhibition at 1 uM [Nanosyn]

>  <BAO Format ID>  (394) 
BAO_0000357

>  <BAO Label>  (394) 
single protein format

>  <Assay Organism>  (394) 
None

>  <Target ChEMBL ID>  (394) 
CHEMBL2599

>  <Target Name>  (394) 
Tyrosine-protein kinase SYK

>  <Target Organism>  (394) 
Homo sapiens

>  <Target Type>  (394) 
SINGLE PROTEIN

>  <Document ChEMBL ID>  (394) 
CHEMBL1961873

>  <Source Description>  (394) 
GSK Published Kinase Inhibitor Set

>  <Document Journal>  (394) 
nan

>  <Document Year>  (394) 
nan

>  <Active>  (394) 
0.0

>  <bits>  (394) 
<rdkit.DataStructs.cDataStructs.ExplicitBitVect object at 0x00000193F33E7300>

>  <Group>  (394) 
G2

$$$$

     RDKit          2D

 18 20  0  0  0  0  0  0  0  0999 V2000
   -1.2990  -10.3573    0.0000 C   0  0  0  0  0  0  0  0  0  0  0  0
    0.0000   -9.6073    0.0000 O   0  0  0  0  0  0  0  0  0  0  0  0
    0.0000   -8.1073    0.0000 C   0  0  0  0  0  0  0  0  0  0  0  0
   -1.2990   -7.3573    0.0000 C   0  0  0  0  0  0  0  0  0  0  0  0
   -1.2990   -5.8573    0.0000 C   0  0  0  0  0  0  0  0  0  0  0  0
   -0.0000   -5.1073    0.0000 C   0  0  0  0  0  0  0  0  0  0  0  0
   -0.0000   -3.6073    0.0000 C   0  0  0  0  0  0  0  0  0  0  0  0
    1.2135   -2.7256    0.0000 C   0  0  0  0  0  0  0  0  0  0  0  0
    0.7500   -1.2990    0.0000 C   0  0  0  0  0  0  0  0  0  0  0  0
    1.5000    0.0000    0.0000 C   0  0  0  0  0  0  0  0  0  0  0  0
    3.0000    0.0000    0.0000 N   0  0  0  0  0  0  0  0  0  0  0  0
    0.7500    1.2990    0.0000 N   0  0  0  0  0  0  0  0  0  0  0  0
   -0.7500    1.2990    0.0000 C   0  0  0  0  0  0  0  0  0  0  0  0
   -1.5000    0.0000    0.0000 N   0  0  0  0  0  0  0  0  0  0  0  0
   -0.7500   -1.2990    0.0000 C   0  0  0  0  0  0  0  0  0  0  0  0
   -1.2135   -2.7256    0.0000 O   0  0  0  0  0  0  0  0  0  0  0  0
    1.2990   -5.8573    0.0000 C   0  0  0  0  0  0  0  0  0  0  0  0
    1.2990   -7.3573    0.0000 C   0  0  0  0  0  0  0  0  0  0  0  0
  1  2  1  0
  2  3  1  0
  3  4  2  0
  4  5  1  0
  5  6  2  0
  6  7  1  0
  7  8  2  0
  8  9  1  0
  9 10  2  0
 10 11  1  0
 10 12  1  0
 12 13  2  0
 13 14  1  0
 14 15  2  0
 15 16  1  0
  6 17  1  0
 17 18  2  0
 18  3  1  0
 16  7  1  0
 15  9  1  0
M  END
>  <Compound_ID>  (395) 
CHEMBL373073

>  <Molecule Name>  (395) 
GW642138X

>  <Molecular Weight>  (395) 
241.25

>  <AlogP>  (395) 
2.48

>  <Smiles>  (395) 
COc1ccc(-c2cc3c(N)ncnc3o2)cc1

>  <Standard Type>  (395) 
Inhibition

>  <Standard Relation>  (395) 
'='

>  <Standard Units>  (395) 
%

>  <Standard Value>  (395) 
-0.57

>  <Assay ChEMBL ID>  (395) 
CHEMBL1962175

>  <Assay Description>  (395) 
GSK_PKIS: SYK mean inhibition at 1 uM [Nanosyn]

>  <BAO Format ID>  (395) 
BAO_0000357

>  <BAO Label>  (395) 
single protein format

>  <Assay Organism>  (395) 
None

>  <Target ChEMBL ID>  (395) 
CHEMBL2599

>  <Target Name>  (395) 
Tyrosine-protein kinase SYK

>  <Target Organism>  (395) 
Homo sapiens

>  <Target Type>  (395) 
SINGLE PROTEIN

>  <Document ChEMBL ID>  (395) 
CHEMBL1961873

>  <Source Description>  (395) 
GSK Published Kinase Inhibitor Set

>  <Document Journal>  (395) 
nan

>  <Document Year>  (395) 
nan

>  <Active>  (395) 
0.0

>  <bits>  (395) 
<rdkit.DataStructs.cDataStructs.ExplicitBitVect object at 0x00000193F33E6C00>

>  <Group>  (395) 
G2

$$$$

     RDKit          2D

 25 28  0  0  0  0  0  0  0  0999 V2000
   -9.6388   -6.1973    0.0000 N   0  0  0  0  0  0  0  0  0  0  0  0
   -8.8888   -4.8983    0.0000 S   0  0  0  0  0  0  0  0  0  0  0  0
  -10.1878   -4.1483    0.0000 O   0  0  0  0  0  0  0  0  0  0  0  0
   -7.5897   -5.6483    0.0000 O   0  0  0  0  0  0  0  0  0  0  0  0
   -8.1388   -3.5992    0.0000 C   0  0  0  0  0  0  0  0  0  0  0  0
   -8.8888   -2.3002    0.0000 C   0  0  0  0  0  0  0  0  0  0  0  0
   -8.1388   -1.0012    0.0000 C   0  0  0  0  0  0  0  0  0  0  0  0
   -6.6388   -1.0012    0.0000 C   0  0  0  0  0  0  0  0  0  0  0  0
   -5.8888    0.2979    0.0000 N   0  0  0  0  0  0  0  0  0  0  0  0
   -4.3888    0.2979    0.0000 C   0  0  0  0  0  0  0  0  0  0  0  0
   -3.6388    1.5969    0.0000 C   0  0  0  0  0  0  0  0  0  0  0  0
   -4.2489    2.9672    0.0000 C   0  0  0  0  0  0  0  0  0  0  0  0
   -5.7161    3.2791    0.0000 O   0  0  0  0  0  0  0  0  0  0  0  0
   -3.1342    3.9709    0.0000 N   0  0  0  0  0  0  0  0  0  0  0  0
   -1.8351    3.2209    0.0000 C   0  0  0  0  0  0  0  0  0  0  0  0
   -0.4086    3.6844    0.0000 C   0  0  0  0  0  0  0  0  0  0  0  0
    0.7062    2.6807    0.0000 C   0  0  0  0  0  0  0  0  0  0  0  0
    0.3943    1.2135    0.0000 C   0  0  0  0  0  0  0  0  0  0  0  0
    1.2760    0.0000    0.0000 N   0  0  0  0  0  0  0  0  0  0  0  0
    0.3943   -1.2135    0.0000 C   0  0  0  0  0  0  0  0  0  0  0  0
   -1.0323   -0.7500    0.0000 S   0  0  0  0  0  0  0  0  0  0  0  0
   -1.0323    0.7500    0.0000 C   0  0  0  0  0  0  0  0  0  0  0  0
   -2.1470    1.7537    0.0000 C   0  0  0  0  0  0  0  0  0  0  0  0
   -5.8888   -2.3002    0.0000 C   0  0  0  0  0  0  0  0  0  0  0  0
   -6.6388   -3.5992    0.0000 C   0  0  0  0  0  0  0  0  0  0  0  0
  1  2  1  0
  2  3  2  0
  2  4  2  0
  2  5  1  0
  5  6  2  0
  6  7  1  0
  7  8  2  0
  8  9  1  0
  9 10  1  0
 10 11  2  0
 11 12  1  0
 12 13  2  0
 12 14  1  0
 14 15  1  0
 15 16  2  0
 16 17  1  0
 17 18  2  0
 18 19  1  0
 19 20  2  0
 20 21  1  0
 21 22  1  0
 22 23  2  0
  8 24  1  0
 24 25  2  0
 25  5  1  0
 23 11  1  0
 23 15  1  0
 22 18  1  0
M  END
>  <Compound_ID>  (396) 
CHEMBL271595

>  <Molecule Name>  (396) 
GW297361X

>  <Molecular Weight>  (396) 
372.43

>  <AlogP>  (396) 
2.35

>  <Smiles>  (396) 
NS(=O)(=O)c1ccc(N/C=C2\C(=O)Nc3ccc4ncsc4c32)cc1

>  <Standard Type>  (396) 
Inhibition

>  <Standard Relation>  (396) 
'='

>  <Standard Units>  (396) 
%

>  <Standard Value>  (396) 
-2.47

>  <Assay ChEMBL ID>  (396) 
CHEMBL1962174

>  <Assay Description>  (396) 
GSK_PKIS: SYK mean inhibition at 0.1 uM [Nanosyn]

>  <BAO Format ID>  (396) 
BAO_0000357

>  <BAO Label>  (396) 
single protein format

>  <Assay Organism>  (396) 
None

>  <Target ChEMBL ID>  (396) 
CHEMBL2599

>  <Target Name>  (396) 
Tyrosine-protein kinase SYK

>  <Target Organism>  (396) 
Homo sapiens

>  <Target Type>  (396) 
SINGLE PROTEIN

>  <Document ChEMBL ID>  (396) 
CHEMBL1961873

>  <Source Description>  (396) 
GSK Published Kinase Inhibitor Set

>  <Document Journal>  (396) 
nan

>  <Document Year>  (396) 
nan

>  <Active>  (396) 
0.0

>  <bits>  (396) 
<rdkit.DataStructs.cDataStructs.ExplicitBitVect object at 0x00000193F33E4190>

>  <Group>  (396) 
G2

$$$$

     RDKit          2D

 26 30  0  0  0  0  0  0  0  0999 V2000
   -4.6845  -11.4787    0.0000 C   0  0  0  0  0  0  0  0  0  0  0  0
   -6.1111  -11.0151    0.0000 C   0  0  0  0  0  0  0  0  0  0  0  0
   -6.4230   -9.5479    0.0000 N   0  0  0  0  0  0  0  0  0  0  0  0
   -5.3083   -8.5442    0.0000 N   0  0  0  0  0  0  0  0  0  0  0  0
   -5.3083   -7.0442    0.0000 N   0  0  0  0  0  0  0  0  0  0  0  0
   -3.8817   -6.5807    0.0000 C   0  0  0  0  0  0  0  0  0  0  0  0
   -3.0000   -7.7942    0.0000 C   0  0  0  0  0  0  0  0  0  0  0  0
   -1.5000   -7.7942    0.0000 C   0  0  0  0  0  0  0  0  0  0  0  0
   -0.7500   -9.0933    0.0000 C   0  0  0  0  0  0  0  0  0  0  0  0
    0.7500   -9.0933    0.0000 C   0  0  0  0  0  0  0  0  0  0  0  0
    1.5000   -7.7942    0.0000 N   0  0  0  0  0  0  0  0  0  0  0  0
    0.7500   -6.4952    0.0000 C   0  0  0  0  0  0  0  0  0  0  0  0
    1.5000   -5.1962    0.0000 N   0  0  0  0  0  0  0  0  0  0  0  0
    0.7500   -3.8971    0.0000 C   0  0  0  0  0  0  0  0  0  0  0  0
   -0.7500   -3.8971    0.0000 C   0  0  0  0  0  0  0  0  0  0  0  0
   -1.5000   -2.5981    0.0000 C   0  0  0  0  0  0  0  0  0  0  0  0
   -0.7500   -1.2990    0.0000 C   0  0  0  0  0  0  0  0  0  0  0  0
    0.7500   -1.2990    0.0000 C   0  0  0  0  0  0  0  0  0  0  0  0
    1.5000   -2.5981    0.0000 C   0  0  0  0  0  0  0  0  0  0  0  0
    1.5000    0.0000    0.0000 O   0  0  0  0  0  0  0  0  0  0  0  0
    0.7500    1.2990    0.0000 C   0  0  0  0  0  0  0  0  0  0  0  0
   -0.7500    1.2990    0.0000 C   0  0  0  0  0  0  0  0  0  0  0  0
   -1.5000    0.0000    0.0000 O   0  0  0  0  0  0  0  0  0  0  0  0
   -0.7500   -6.4952    0.0000 N   0  0  0  0  0  0  0  0  0  0  0  0
   -3.8817   -9.0078    0.0000 C   0  0  0  0  0  0  0  0  0  0  0  0
   -3.5698  -10.4750    0.0000 C   0  0  0  0  0  0  0  0  0  0  0  0
  1  2  1  0
  2  3  2  0
  3  4  1  0
  4  5  1  0
  5  6  2  0
  6  7  1  0
  7  8  1  0
  8  9  2  0
  9 10  1  0
 10 11  2  0
 11 12  1  0
 12 13  1  0
 13 14  1  0
 14 15  2  0
 15 16  1  0
 16 17  2  0
 17 18  1  0
 18 19  2  0
 18 20  1  0
 20 21  1  0
 21 22  1  0
 22 23  1  0
 12 24  2  0
  7 25  2  0
 25 26  1  0
 26  1  2  0
 25  4  1  0
 24  8  1  0
 19 14  1  0
 23 17  1  0
M  END
>  <Compound_ID>  (397) 
CHEMBL361894

>  <Molecule Name>  (397) 
GW806290X

>  <Molecular Weight>  (397) 
346.35

>  <AlogP>  (397) 
2.70

>  <Smiles>  (397) 
c1cnn2ncc(-c3ccnc(Nc4ccc5c(c4)OCCO5)n3)c2c1

>  <Standard Type>  (397) 
Inhibition

>  <Standard Relation>  (397) 
'='

>  <Standard Units>  (397) 
%

>  <Standard Value>  (397) 
13.23

>  <Assay ChEMBL ID>  (397) 
CHEMBL1962175

>  <Assay Description>  (397) 
GSK_PKIS: SYK mean inhibition at 1 uM [Nanosyn]

>  <BAO Format ID>  (397) 
BAO_0000357

>  <BAO Label>  (397) 
single protein format

>  <Assay Organism>  (397) 
None

>  <Target ChEMBL ID>  (397) 
CHEMBL2599

>  <Target Name>  (397) 
Tyrosine-protein kinase SYK

>  <Target Organism>  (397) 
Homo sapiens

>  <Target Type>  (397) 
SINGLE PROTEIN

>  <Document ChEMBL ID>  (397) 
CHEMBL1961873

>  <Source Description>  (397) 
GSK Published Kinase Inhibitor Set

>  <Document Journal>  (397) 
nan

>  <Document Year>  (397) 
nan

>  <Active>  (397) 
0.0

>  <bits>  (397) 
<rdkit.DataStructs.cDataStructs.ExplicitBitVect object at 0x00000193F33E4430>

>  <Group>  (397) 
G2

$$$$

     RDKit          2D

 23 26  0  0  0  0  0  0  0  0999 V2000
   -0.0000   -5.1073    0.0000 O   0  0  0  0  0  0  0  0  0  0  0  0
   -0.0000   -3.6073    0.0000 C   0  0  0  0  0  0  0  0  0  0  0  0
    1.2135   -2.7256    0.0000 N   0  0  0  0  0  0  0  0  0  0  0  0
    0.7500   -1.2990    0.0000 C   0  0  0  0  0  0  0  0  0  0  0  0
    1.5000    0.0000    0.0000 C   0  0  0  0  0  0  0  0  0  0  0  0
    0.7500    1.2990    0.0000 C   0  0  0  0  0  0  0  0  0  0  0  0
   -0.7500    1.2990    0.0000 C   0  0  0  0  0  0  0  0  0  0  0  0
   -1.5000    0.0000    0.0000 C   0  0  0  0  0  0  0  0  0  0  0  0
   -0.7500   -1.2990    0.0000 C   0  0  0  0  0  0  0  0  0  0  0  0
   -1.2135   -2.7256    0.0000 C   0  0  0  0  0  0  0  0  0  0  0  0
   -2.6401   -3.1891    0.0000 C   0  0  0  0  0  0  0  0  0  0  0  0
   -2.9520   -4.6564    0.0000 N   0  0  0  0  0  0  0  0  0  0  0  0
   -4.3786   -5.1199    0.0000 C   0  0  0  0  0  0  0  0  0  0  0  0
   -5.4933   -4.1162    0.0000 C   0  0  0  0  0  0  0  0  0  0  0  0
   -6.9199   -4.5797    0.0000 C   0  0  0  0  0  0  0  0  0  0  0  0
   -7.2317   -6.0469    0.0000 C   0  0  0  0  0  0  0  0  0  0  0  0
   -8.6583   -6.5105    0.0000 N   0  0  0  0  0  0  0  0  0  0  0  0
   -9.1218   -7.9371    0.0000 C   0  0  0  0  0  0  0  0  0  0  0  0
  -10.6218   -7.9371    0.0000 N   0  0  0  0  0  0  0  0  0  0  0  0
  -11.0854   -6.5105    0.0000 C   0  0  0  0  0  0  0  0  0  0  0  0
   -9.8718   -5.6288    0.0000 N   0  0  0  0  0  0  0  0  0  0  0  0
   -6.1170   -7.0506    0.0000 C   0  0  0  0  0  0  0  0  0  0  0  0
   -4.6904   -6.5871    0.0000 C   0  0  0  0  0  0  0  0  0  0  0  0
  1  2  2  0
  2  3  1  0
  3  4  1  0
  4  5  2  0
  5  6  1  0
  6  7  2  0
  7  8  1  0
  8  9  2  0
  9 10  1  0
 10 11  2  0
 11 12  1  0
 12 13  1  0
 13 14  2  0
 14 15  1  0
 15 16  2  0
 16 17  1  0
 17 18  1  0
 18 19  2  0
 19 20  1  0
 20 21  2  0
 16 22  1  0
 22 23  2  0
 10  2  1  0
 23 13  1  0
  9  4  1  0
 21 17  1  0
M  END
>  <Compound_ID>  (398) 
CHEMBL1794056

>  <Molecule Name>  (398) 
GW301789X

>  <Molecular Weight>  (398) 
303.32

>  <AlogP>  (398) 
2.67

>  <Smiles>  (398) 
O=C1Nc2ccccc2/C1=C/Nc1ccc(-n2cncn2)cc1

>  <Standard Type>  (398) 
Inhibition

>  <Standard Relation>  (398) 
'='

>  <Standard Units>  (398) 
%

>  <Standard Value>  (398) 
-1.28

>  <Assay ChEMBL ID>  (398) 
CHEMBL1962174

>  <Assay Description>  (398) 
GSK_PKIS: SYK mean inhibition at 0.1 uM [Nanosyn]

>  <BAO Format ID>  (398) 
BAO_0000357

>  <BAO Label>  (398) 
single protein format

>  <Assay Organism>  (398) 
None

>  <Target ChEMBL ID>  (398) 
CHEMBL2599

>  <Target Name>  (398) 
Tyrosine-protein kinase SYK

>  <Target Organism>  (398) 
Homo sapiens

>  <Target Type>  (398) 
SINGLE PROTEIN

>  <Document ChEMBL ID>  (398) 
CHEMBL1961873

>  <Source Description>  (398) 
GSK Published Kinase Inhibitor Set

>  <Document Journal>  (398) 
nan

>  <Document Year>  (398) 
nan

>  <Active>  (398) 
0.0

>  <bits>  (398) 
<rdkit.DataStructs.cDataStructs.ExplicitBitVect object at 0x00000193F33E5150>

>  <Group>  (398) 
G2

$$$$

     RDKit          2D

 28 31  0  0  0  0  0  0  0  0999 V2000
    6.7500    1.2990    0.0000 C   0  0  0  0  0  0  0  0  0  0  0  0
    6.0000   -0.0000    0.0000 C   0  0  0  0  0  0  0  0  0  0  0  0
    5.2500   -1.2990    0.0000 C   0  0  0  0  0  0  0  0  0  0  0  0
    6.0000   -2.5981    0.0000 C   0  0  0  0  0  0  0  0  0  0  0  0
    5.2500   -3.8971    0.0000 C   0  0  0  0  0  0  0  0  0  0  0  0
    3.7500   -3.8971    0.0000 C   0  0  0  0  0  0  0  0  0  0  0  0
    3.0000   -2.5981    0.0000 C   0  0  0  0  0  0  0  0  0  0  0  0
    1.5000   -2.5981    0.0000 N   0  0  0  0  0  0  0  0  0  0  0  0
    0.7500   -1.2990    0.0000 C   0  0  0  0  0  0  0  0  0  0  0  0
    1.5000    0.0000    0.0000 N   0  0  0  0  0  0  0  0  0  0  0  0
    0.7500    1.2990    0.0000 C   0  0  0  0  0  0  0  0  0  0  0  0
   -0.7500    1.2990    0.0000 N   0  0  0  0  0  0  0  0  0  0  0  0
   -1.5000    0.0000    0.0000 C   0  0  0  0  0  0  0  0  0  0  0  0
   -2.9672   -0.3119    0.0000 S   0  0  0  0  0  0  0  0  0  0  0  0
   -3.1240   -1.8037    0.0000 C   0  0  0  0  0  0  0  0  0  0  0  0
   -4.4231   -2.5537    0.0000 C   0  0  0  0  0  0  0  0  0  0  0  0
   -5.7221   -1.8037    0.0000 C   0  0  0  0  0  0  0  0  0  0  0  0
   -7.0211   -2.5537    0.0000 C   0  0  0  0  0  0  0  0  0  0  0  0
   -7.0211   -4.0537    0.0000 C   0  0  0  0  0  0  0  0  0  0  0  0
   -8.3202   -4.8037    0.0000 C   0  0  0  0  0  0  0  0  0  0  0  0
   -9.6192   -4.0537    0.0000 O   0  0  0  0  0  0  0  0  0  0  0  0
   -5.7221   -4.8037    0.0000 C   0  0  0  0  0  0  0  0  0  0  0  0
   -4.4231   -4.0537    0.0000 C   0  0  0  0  0  0  0  0  0  0  0  0
   -3.1240   -4.8037    0.0000 O   0  0  0  0  0  0  0  0  0  0  0  0
   -3.1240   -6.3037    0.0000 C   0  0  0  0  0  0  0  0  0  0  0  0
   -1.7537   -2.4138    0.0000 C   0  0  0  0  0  0  0  0  0  0  0  0
   -0.7500   -1.2990    0.0000 C   0  0  0  0  0  0  0  0  0  0  0  0
    3.7500   -1.2990    0.0000 C   0  0  0  0  0  0  0  0  0  0  0  0
  1  2  3  0
  2  3  1  0
  3  4  2  0
  4  5  1  0
  5  6  2  0
  6  7  1  0
  7  8  1  0
  8  9  1  0
  9 10  2  0
 10 11  1  0
 11 12  2  0
 12 13  1  0
 13 14  1  0
 14 15  1  0
 15 16  1  0
 16 17  2  0
 17 18  1  0
 18 19  2  0
 19 20  1  0
 20 21  1  0
 19 22  1  0
 22 23  2  0
 23 24  1  0
 24 25  1  0
 15 26  2  0
 26 27  1  0
  7 28  2  0
 28  3  1  0
 27  9  1  0
 27 13  2  0
 23 16  1  0
M  END
>  <Compound_ID>  (399) 
CHEMBL3758802

>  <Molecule Name>  (399) 
nan

>  <Molecular Weight>  (399) 
387.46

>  <AlogP>  (399) 
4.58

>  <Smiles>  (399) 
C#Cc1cccc(Nc2ncnc3sc(-c4ccc(CO)cc4OC)cc23)c1

>  <Standard Type>  (399) 
Inhibition

>  <Standard Relation>  (399) 
'='

>  <Standard Units>  (399) 
%

>  <Standard Value>  (399) 
16.0

>  <Assay ChEMBL ID>  (399) 
CHEMBL3761605

>  <Assay Description>  (399) 
Inhibition of SYK (unknown origin) at 500 nM

>  <BAO Format ID>  (399) 
BAO_0000357

>  <BAO Label>  (399) 
single protein format

>  <Assay Organism>  (399) 
Homo sapiens

>  <Target ChEMBL ID>  (399) 
CHEMBL2599

>  <Target Name>  (399) 
Tyrosine-protein kinase SYK

>  <Target Organism>  (399) 
Homo sapiens

>  <Target Type>  (399) 
SINGLE PROTEIN

>  <Document ChEMBL ID>  (399) 
CHEMBL3758163

>  <Source Description>  (399) 
Scientific Literature

>  <Document Journal>  (399) 
Eur J Med Chem

>  <Document Year>  (399) 
2016.0

>  <Active>  (399) 
0.0

>  <bits>  (399) 
<rdkit.DataStructs.cDataStructs.ExplicitBitVect object at 0x00000193F33E47B0>

>  <Group>  (399) 
G2

$$$$

     RDKit          2D

 21 23  0  0  0  0  0  0  0  0999 V2000
   -6.7407   -9.9851    0.0000 F   0  0  0  0  0  0  0  0  0  0  0  0
   -6.4289   -8.5179    0.0000 C   0  0  0  0  0  0  0  0  0  0  0  0
   -7.8961   -8.2060    0.0000 F   0  0  0  0  0  0  0  0  0  0  0  0
   -4.9617   -8.8297    0.0000 F   0  0  0  0  0  0  0  0  0  0  0  0
   -6.1170   -7.0506    0.0000 C   0  0  0  0  0  0  0  0  0  0  0  0
   -4.6904   -6.5871    0.0000 N   0  0  0  0  0  0  0  0  0  0  0  0
   -4.3786   -5.1199    0.0000 C   0  0  0  0  0  0  0  0  0  0  0  0
   -5.4933   -4.1162    0.0000 N   0  0  0  0  0  0  0  0  0  0  0  0
   -5.1814   -2.6490    0.0000 C   0  0  0  0  0  0  0  0  0  0  0  0
   -3.7548   -2.1855    0.0000 C   0  0  0  0  0  0  0  0  0  0  0  0
   -2.6401   -3.1891    0.0000 C   0  0  0  0  0  0  0  0  0  0  0  0
   -1.2135   -2.7256    0.0000 C   0  0  0  0  0  0  0  0  0  0  0  0
   -0.0000   -3.6073    0.0000 C   0  0  0  0  0  0  0  0  0  0  0  0
    1.2135   -2.7256    0.0000 N   0  0  0  0  0  0  0  0  0  0  0  0
    0.7500   -1.2990    0.0000 N   0  0  0  0  0  0  0  0  0  0  0  0
    1.5000    0.0000    0.0000 N   0  0  0  0  0  0  0  0  0  0  0  0
    0.7500    1.2990    0.0000 C   0  0  0  0  0  0  0  0  0  0  0  0
   -0.7500    1.2990    0.0000 C   0  0  0  0  0  0  0  0  0  0  0  0
   -1.5000    0.0000    0.0000 C   0  0  0  0  0  0  0  0  0  0  0  0
   -0.7500   -1.2990    0.0000 C   0  0  0  0  0  0  0  0  0  0  0  0
   -2.9520   -4.6564    0.0000 N   0  0  0  0  0  0  0  0  0  0  0  0
  1  2  1  0
  2  3  1  0
  2  4  1  0
  2  5  1  0
  5  6  1  0
  6  7  1  0
  7  8  2  0
  8  9  1  0
  9 10  2  0
 10 11  1  0
 11 12  1  0
 12 13  1  0
 13 14  2  0
 14 15  1  0
 15 16  1  0
 16 17  2  0
 17 18  1  0
 18 19  2  0
 19 20  1  0
 11 21  2  0
 21  7  1  0
 20 12  2  0
 20 15  1  0
M  END
>  <Compound_ID>  (400) 
CHEMBL446024

>  <Molecule Name>  (400) 
GW683003X

>  <Molecular Weight>  (400) 
294.24

>  <AlogP>  (400) 
2.16

>  <Smiles>  (400) 
FC(F)(F)CNc1nccc(-c2cnn3ncccc23)n1

>  <Standard Type>  (400) 
Inhibition

>  <Standard Relation>  (400) 
'='

>  <Standard Units>  (400) 
%

>  <Standard Value>  (400) 
-0.18

>  <Assay ChEMBL ID>  (400) 
CHEMBL1962174

>  <Assay Description>  (400) 
GSK_PKIS: SYK mean inhibition at 0.1 uM [Nanosyn]

>  <BAO Format ID>  (400) 
BAO_0000357

>  <BAO Label>  (400) 
single protein format

>  <Assay Organism>  (400) 
None

>  <Target ChEMBL ID>  (400) 
CHEMBL2599

>  <Target Name>  (400) 
Tyrosine-protein kinase SYK

>  <Target Organism>  (400) 
Homo sapiens

>  <Target Type>  (400) 
SINGLE PROTEIN

>  <Document ChEMBL ID>  (400) 
CHEMBL1961873

>  <Source Description>  (400) 
GSK Published Kinase Inhibitor Set

>  <Document Journal>  (400) 
nan

>  <Document Year>  (400) 
nan

>  <Active>  (400) 
0.0

>  <bits>  (400) 
<rdkit.DataStructs.cDataStructs.ExplicitBitVect object at 0x00000193F33E6570>

>  <Group>  (400) 
G2

$$$$

     RDKit          2D

 27 29  0  0  0  0  0  0  0  0999 V2000
    7.5000   -2.5981    0.0000 C   0  0  0  0  0  0  0  0  0  0  0  0
    6.0000   -2.5981    0.0000 N   0  0  0  0  0  0  0  0  0  0  0  0
    5.2500   -3.8971    0.0000 C   0  0  0  0  0  0  0  0  0  0  0  0
    5.2500   -1.2990    0.0000 C   0  0  0  0  0  0  0  0  0  0  0  0
    3.7500   -1.2990    0.0000 C   0  0  0  0  0  0  0  0  0  0  0  0
    3.0000    0.0000    0.0000 N   0  0  0  0  0  0  0  0  0  0  0  0
    1.5000    0.0000    0.0000 C   0  0  0  0  0  0  0  0  0  0  0  0
    0.7500   -1.2990    0.0000 N   0  0  0  0  0  0  0  0  0  0  0  0
   -0.7500   -1.2990    0.0000 C   0  0  0  0  0  0  0  0  0  0  0  0
   -1.5000    0.0000    0.0000 C   0  0  0  0  0  0  0  0  0  0  0  0
   -3.0000    0.0000    0.0000 C   0  0  0  0  0  0  0  0  0  0  0  0
   -3.7500    1.2990    0.0000 C   0  0  0  0  0  0  0  0  0  0  0  0
   -5.2500    1.2990    0.0000 O   0  0  0  0  0  0  0  0  0  0  0  0
   -6.0000    2.5981    0.0000 C   0  0  0  0  0  0  0  0  0  0  0  0
   -5.2500    3.8971    0.0000 C   0  0  0  0  0  0  0  0  0  0  0  0
   -6.0000    5.1962    0.0000 C   0  0  0  0  0  0  0  0  0  0  0  0
   -7.5000    5.1962    0.0000 C   0  0  0  0  0  0  0  0  0  0  0  0
   -8.2500    6.4952    0.0000 F   0  0  0  0  0  0  0  0  0  0  0  0
   -8.2500    3.8971    0.0000 C   0  0  0  0  0  0  0  0  0  0  0  0
   -7.5000    2.5981    0.0000 C   0  0  0  0  0  0  0  0  0  0  0  0
   -8.2500    1.2990    0.0000 F   0  0  0  0  0  0  0  0  0  0  0  0
   -3.0000    2.5981    0.0000 C   0  0  0  0  0  0  0  0  0  0  0  0
   -3.7500    3.8971    0.0000 O   0  0  0  0  0  0  0  0  0  0  0  0
   -1.5000    2.5981    0.0000 N   0  0  0  0  0  0  0  0  0  0  0  0
   -0.7500    3.8971    0.0000 C   0  0  0  0  0  0  0  0  0  0  0  0
   -0.7500    1.2990    0.0000 C   0  0  0  0  0  0  0  0  0  0  0  0
    0.7500    1.2990    0.0000 N   0  0  0  0  0  0  0  0  0  0  0  0
  1  2  1  0
  2  3  1  0
  2  4  1  0
  4  5  1  0
  5  6  1  0
  6  7  1  0
  7  8  2  0
  8  9  1  0
  9 10  2  0
 10 11  1  0
 11 12  2  0
 12 13  1  0
 13 14  1  0
 14 15  2  0
 15 16  1  0
 16 17  2  0
 17 18  1  0
 17 19  1  0
 19 20  2  0
 20 21  1  0
 12 22  1  0
 22 23  2  0
 22 24  1  0
 24 25  1  0
 24 26  1  0
 26 27  2  0
 27  7  1  0
 26 10  1  0
 20 14  1  0
M  END
>  <Compound_ID>  (401) 
CHEMBL3745857

>  <Molecule Name>  (401) 
nan

>  <Molecular Weight>  (401) 
375.38

>  <AlogP>  (401) 
2.37

>  <Smiles>  (401) 
CN(C)CCNc1ncc2cc(Oc3ccc(F)cc3F)c(=O)n(C)c2n1

>  <Standard Type>  (401) 
Inhibition

>  <Standard Relation>  (401) 
'='

>  <Standard Units>  (401) 
%

>  <Standard Value>  (401) 
3.0

>  <Assay ChEMBL ID>  (401) 
CHEMBL3750776

>  <Assay Description>  (401) 
Inhibition of SYK (unknown origin) at 10 uM

>  <BAO Format ID>  (401) 
BAO_0000357

>  <BAO Label>  (401) 
single protein format

>  <Assay Organism>  (401) 
Homo sapiens

>  <Target ChEMBL ID>  (401) 
CHEMBL2599

>  <Target Name>  (401) 
Tyrosine-protein kinase SYK

>  <Target Organism>  (401) 
Homo sapiens

>  <Target Type>  (401) 
SINGLE PROTEIN

>  <Document ChEMBL ID>  (401) 
CHEMBL3745672

>  <Source Description>  (401) 
Scientific Literature

>  <Document Journal>  (401) 
Bioorg Med Chem Lett

>  <Document Year>  (401) 
2016.0

>  <Active>  (401) 
0.0

>  <bits>  (401) 
<rdkit.DataStructs.cDataStructs.ExplicitBitVect object at 0x00000193F33E4DD0>

>  <Group>  (401) 
G2

$$$$

     RDKit          2D

 30 34  0  0  0  0  0  0  0  0999 V2000
    3.7500   -1.2990    0.0000 C   0  0  0  0  0  0  0  0  0  0  0  0
    3.0000    0.0000    0.0000 O   0  0  0  0  0  0  0  0  0  0  0  0
    1.5000    0.0000    0.0000 C   0  0  0  0  0  0  0  0  0  0  0  0
    0.7500   -1.2990    0.0000 C   0  0  0  0  0  0  0  0  0  0  0  0
   -0.7500   -1.2990    0.0000 C   0  0  0  0  0  0  0  0  0  0  0  0
   -1.5000    0.0000    0.0000 C   0  0  0  0  0  0  0  0  0  0  0  0
   -0.7500    1.2990    0.0000 C   0  0  0  0  0  0  0  0  0  0  0  0
    0.7500    1.2990    0.0000 C   0  0  0  0  0  0  0  0  0  0  0  0
    1.5000    2.5981    0.0000 C   0  0  0  0  0  0  0  0  0  0  0  0
    3.0000    2.5981    0.0000 C   0  0  0  0  0  0  0  0  0  0  0  0
    0.7500    3.8971    0.0000 N   0  0  0  0  0  0  0  0  0  0  0  0
    1.5000    5.1962    0.0000 C   0  0  0  0  0  0  0  0  0  0  0  0
    0.7500    6.4952    0.0000 C   0  0  0  0  0  0  0  0  0  0  0  0
   -0.7500    6.4952    0.0000 N   0  0  0  0  0  0  0  0  0  0  0  0
   -1.5000    5.1962    0.0000 C   0  0  0  0  0  0  0  0  0  0  0  0
   -0.7500    3.8971    0.0000 C   0  0  0  0  0  0  0  0  0  0  0  0
   -1.7537    2.4138    0.0000 O   0  0  0  0  0  0  0  0  0  0  0  0
   -3.1240    1.8037    0.0000 C   0  0  0  0  0  0  0  0  0  0  0  0
   -4.4231    2.5537    0.0000 C   0  0  0  0  0  0  0  0  0  0  0  0
   -4.4231    4.0537    0.0000 C   0  0  0  0  0  0  0  0  0  0  0  0
   -3.2095    4.9353    0.0000 N   0  0  0  0  0  0  0  0  0  0  0  0
   -3.6731    6.3619    0.0000 N   0  0  0  0  0  0  0  0  0  0  0  0
   -5.1731    6.3619    0.0000 C   0  0  0  0  0  0  0  0  0  0  0  0
   -6.1767    7.4766    0.0000 N   0  0  0  0  0  0  0  0  0  0  0  0
   -7.6440    7.1648    0.0000 C   0  0  0  0  0  0  0  0  0  0  0  0
   -8.1075    5.7382    0.0000 C   0  0  0  0  0  0  0  0  0  0  0  0
   -7.1038    4.6235    0.0000 C   0  0  0  0  0  0  0  0  0  0  0  0
   -5.6366    4.9353    0.0000 C   0  0  0  0  0  0  0  0  0  0  0  0
   -2.9672    0.3119    0.0000 C   0  0  0  0  0  0  0  0  0  0  0  0
   -4.0819   -0.6918    0.0000 O   0  0  0  0  0  0  0  0  0  0  0  0
  1  2  1  0
  2  3  1  0
  3  4  2  0
  4  5  1  0
  5  6  2  0
  6  7  1  0
  7  8  2  0
  8  9  1  0
  9 10  1  0
  9 11  1  0
 11 12  1  0
 12 13  1  0
 13 14  1  0
 14 15  1  0
 15 16  1  0
  7 17  1  0
 17 18  1  0
 18 19  2  0
 19 20  1  0
 20 21  2  0
 21 22  1  0
 22 23  1  0
 23 24  2  0
 24 25  1  0
 25 26  2  0
 26 27  1  0
 27 28  2  0
 18 29  1  0
 29 30  2  0
  8  3  1  0
 16 11  1  0
 28 20  1  0
 29  6  1  0
 28 23  1  0
M  END
>  <Compound_ID>  (402) 
CHEMBL3735890

>  <Molecule Name>  (402) 
nan

>  <Molecular Weight>  (402) 
405.46

>  <AlogP>  (402) 
2.55

>  <Smiles>  (402) 
COc1ccc2c(c1C(C)N1CCNCC1)O/C(=C\c1n[nH]c3ncccc13)C2=O

>  <Standard Type>  (402) 
Inhibition

>  <Standard Relation>  (402) 
'='

>  <Standard Units>  (402) 
%

>  <Standard Value>  (402) 
5.3

>  <Assay ChEMBL ID>  (402) 
CHEMBL3738544

>  <Assay Description>  (402) 
Inhibition of SYK (unknown origin) at 200 nM by electrophoretic mobility shift assay

>  <BAO Format ID>  (402) 
BAO_0000357

>  <BAO Label>  (402) 
single protein format

>  <Assay Organism>  (402) 
Homo sapiens

>  <Target ChEMBL ID>  (402) 
CHEMBL2599

>  <Target Name>  (402) 
Tyrosine-protein kinase SYK

>  <Target Organism>  (402) 
Homo sapiens

>  <Target Type>  (402) 
SINGLE PROTEIN

>  <Document ChEMBL ID>  (402) 
CHEMBL3734671

>  <Source Description>  (402) 
Scientific Literature

>  <Document Journal>  (402) 
Bioorg Med Chem Lett

>  <Document Year>  (402) 
2015.0

>  <Active>  (402) 
0.0

>  <bits>  (402) 
<rdkit.DataStructs.cDataStructs.ExplicitBitVect object at 0x00000193F33E6B90>

>  <Group>  (402) 
G2

$$$$

     RDKit          2D

 44 48  0  0  0  0  0  0  0  0999 V2000
   -2.8273  -15.9716    0.0000 C   0  0  0  0  0  0  0  0  0  0  0  0
   -1.3601  -15.6597    0.0000 C   0  0  0  0  0  0  0  0  0  0  0  0
   -0.2454  -16.6634    0.0000 C   0  0  0  0  0  0  0  0  0  0  0  0
    1.0537  -15.9134    0.0000 N   0  0  0  0  0  0  0  0  0  0  0  0
    0.7418  -14.4462    0.0000 C   0  0  0  0  0  0  0  0  0  0  0  0
   -0.7500  -14.2894    0.0000 N   0  0  0  0  0  0  0  0  0  0  0  0
   -1.5000  -12.9904    0.0000 C   0  0  0  0  0  0  0  0  0  0  0  0
   -0.7500  -11.6913    0.0000 C   0  0  0  0  0  0  0  0  0  0  0  0
   -1.5000  -10.3923    0.0000 C   0  0  0  0  0  0  0  0  0  0  0  0
   -0.7500   -9.0933    0.0000 C   0  0  0  0  0  0  0  0  0  0  0  0
   -1.5000   -7.7942    0.0000 O   0  0  0  0  0  0  0  0  0  0  0  0
    0.7500   -9.0933    0.0000 N   0  0  0  0  0  0  0  0  0  0  0  0
    1.5000   -7.7942    0.0000 C   0  0  0  0  0  0  0  0  0  0  0  0
    3.0000   -7.7942    0.0000 C   0  0  0  0  0  0  0  0  0  0  0  0
    3.7500   -6.4952    0.0000 C   0  0  0  0  0  0  0  0  0  0  0  0
    3.0000   -5.1962    0.0000 C   0  0  0  0  0  0  0  0  0  0  0  0
    1.5000   -5.1962    0.0000 C   0  0  0  0  0  0  0  0  0  0  0  0
    0.7500   -3.8971    0.0000 C   0  0  0  0  0  0  0  0  0  0  0  0
    1.5000   -2.5981    0.0000 N   0  0  0  0  0  0  0  0  0  0  0  0
    0.7500   -1.2990    0.0000 C   0  0  0  0  0  0  0  0  0  0  0  0
    1.5000    0.0000    0.0000 C   0  0  0  0  0  0  0  0  0  0  0  0
    0.7500    1.2990    0.0000 C   0  0  0  0  0  0  0  0  0  0  0  0
   -0.7500    1.2990    0.0000 C   0  0  0  0  0  0  0  0  0  0  0  0
   -1.7537    2.4138    0.0000 C   0  0  0  0  0  0  0  0  0  0  0  0
   -1.4418    3.8810    0.0000 C   0  0  0  0  0  0  0  0  0  0  0  0
   -0.0152    4.3445    0.0000 O   0  0  0  0  0  0  0  0  0  0  0  0
   -2.5565    4.8847    0.0000 N   0  0  0  0  0  0  0  0  0  0  0  0
   -2.2447    6.3519    0.0000 C   0  0  0  0  0  0  0  0  0  0  0  0
   -3.3594    7.3556    0.0000 C   0  0  0  0  0  0  0  0  0  0  0  0
   -0.8181    6.8154    0.0000 C   0  0  0  0  0  0  0  0  0  0  0  0
   -0.5062    8.2826    0.0000 N   0  0  0  0  0  0  0  0  0  0  0  0
    0.2966    5.8117    0.0000 O   0  0  0  0  0  0  0  0  0  0  0  0
   -3.1240    1.8037    0.0000 N   0  0  0  0  0  0  0  0  0  0  0  0
   -2.9672    0.3119    0.0000 N   0  0  0  0  0  0  0  0  0  0  0  0
   -1.5000    0.0000    0.0000 C   0  0  0  0  0  0  0  0  0  0  0  0
   -0.7500   -1.2990    0.0000 C   0  0  0  0  0  0  0  0  0  0  0  0
    0.7500   -6.4952    0.0000 C   0  0  0  0  0  0  0  0  0  0  0  0
   -3.0000  -10.3923    0.0000 C   0  0  0  0  0  0  0  0  0  0  0  0
   -3.7500  -11.6913    0.0000 C   0  0  0  0  0  0  0  0  0  0  0  0
   -5.2500  -11.6913    0.0000 C   0  0  0  0  0  0  0  0  0  0  0  0
   -6.7500  -11.6913    0.0000 F   0  0  0  0  0  0  0  0  0  0  0  0
   -5.2500  -10.1913    0.0000 F   0  0  0  0  0  0  0  0  0  0  0  0
   -5.2500  -13.1913    0.0000 F   0  0  0  0  0  0  0  0  0  0  0  0
   -3.0000  -12.9904    0.0000 C   0  0  0  0  0  0  0  0  0  0  0  0
  1  2  1  0
  2  3  2  0
  3  4  1  0
  4  5  2  0
  5  6  1  0
  6  7  1  0
  7  8  2  0
  8  9  1  0
  9 10  1  0
 10 11  2  0
 10 12  1  0
 12 13  1  0
 13 14  2  0
 14 15  1  0
 15 16  2  0
 16 17  1  0
 17 18  1  0
 18 19  1  0
 19 20  1  0
 20 21  1  0
 21 22  2  0
 22 23  1  0
 23 24  2  0
 24 25  1  0
 25 26  2  0
 25 27  1  0
 27 28  1  0
 28 29  1  1
 28 30  1  0
 30 31  1  0
 30 32  2  0
 24 33  1  0
 33 34  1  0
 34 35  2  0
 35 36  1  0
 17 37  2  0
  9 38  2  0
 38 39  1  0
 39 40  1  0
 40 41  1  0
 40 42  1  0
 40 43  1  0
 39 44  2  0
  6  2  1  0
 44  7  1  0
 37 13  1  0
 36 20  2  0
 35 23  1  0
M  END
>  <Compound_ID>  (403) 
CHEMBL3764798

>  <Molecule Name>  (403) 
nan

>  <Molecular Weight>  (403) 
604.59

>  <AlogP>  (403) 
4.54

>  <Smiles>  (403) 
Cc1cncn1-c1cc(C(=O)Nc2cccc(CNc3ccc4c(C(=O)N[C@@H](C)C(N)=O)[nH]nc4c3)c2)cc(C(F)(F)F)c1

>  <Standard Type>  (403) 
Inhibition

>  <Standard Relation>  (403) 
'='

>  <Standard Units>  (403) 
%

>  <Standard Value>  (403) 
2.89

>  <Assay ChEMBL ID>  (403) 
CHEMBL3768038

>  <Assay Description>  (403) 
Inhibition of human SYK at 10 uM

>  <BAO Format ID>  (403) 
BAO_0000357

>  <BAO Label>  (403) 
single protein format

>  <Assay Organism>  (403) 
Homo sapiens

>  <Target ChEMBL ID>  (403) 
CHEMBL2599

>  <Target Name>  (403) 
Tyrosine-protein kinase SYK

>  <Target Organism>  (403) 
Homo sapiens

>  <Target Type>  (403) 
SINGLE PROTEIN

>  <Document ChEMBL ID>  (403) 
CHEMBL3763132

>  <Source Description>  (403) 
Scientific Literature

>  <Document Journal>  (403) 
Bioorg Med Chem Lett

>  <Document Year>  (403) 
2016.0

>  <Active>  (403) 
0.0

>  <bits>  (403) 
<rdkit.DataStructs.cDataStructs.ExplicitBitVect object at 0x00000193F33E7220>

>  <Group>  (403) 
G2

$$$$

     RDKit          2D

 21 24  0  0  0  0  0  0  0  0999 V2000
   -2.8864    8.8834    0.0000 F   0  0  0  0  0  0  0  0  0  0  0  0
   -2.4229    7.4568    0.0000 C   0  0  0  0  0  0  0  0  0  0  0  0
   -0.9556    7.1449    0.0000 C   0  0  0  0  0  0  0  0  0  0  0  0
   -0.4921    5.7184    0.0000 C   0  0  0  0  0  0  0  0  0  0  0  0
   -1.4958    4.6036    0.0000 C   0  0  0  0  0  0  0  0  0  0  0  0
   -1.0323    3.1771    0.0000 C   0  0  0  0  0  0  0  0  0  0  0  0
   -1.9140    1.9635    0.0000 N   0  0  0  0  0  0  0  0  0  0  0  0
   -1.0323    0.7500    0.0000 C   0  0  0  0  0  0  0  0  0  0  0  0
    0.3943    1.2135    0.0000 N   0  0  0  0  0  0  0  0  0  0  0  0
    0.3943    2.7135    0.0000 C   0  0  0  0  0  0  0  0  0  0  0  0
    1.6078    3.5952    0.0000 C   0  0  0  0  0  0  0  0  0  0  0  0
    2.9781    2.9851    0.0000 C   0  0  0  0  0  0  0  0  0  0  0  0
    4.1917    3.8668    0.0000 C   0  0  0  0  0  0  0  0  0  0  0  0
    4.0349    5.3586    0.0000 N   0  0  0  0  0  0  0  0  0  0  0  0
    2.6646    5.9687    0.0000 C   0  0  0  0  0  0  0  0  0  0  0  0
    1.4510    5.0870    0.0000 C   0  0  0  0  0  0  0  0  0  0  0  0
    1.2760    0.0000    0.0000 C   0  0  0  0  0  0  0  0  0  0  0  0
    0.3943   -1.2135    0.0000 C   0  0  0  0  0  0  0  0  0  0  0  0
   -1.0323   -0.7500    0.0000 S   0  0  0  0  0  0  0  0  0  0  0  0
   -2.9630    4.9155    0.0000 C   0  0  0  0  0  0  0  0  0  0  0  0
   -3.4266    6.3421    0.0000 C   0  0  0  0  0  0  0  0  0  0  0  0
  1  2  1  0
  2  3  2  0
  3  4  1  0
  4  5  2  0
  5  6  1  0
  6  7  1  0
  7  8  2  0
  8  9  1  0
  9 10  1  0
 10 11  1  0
 11 12  2  0
 12 13  1  0
 13 14  2  0
 14 15  1  0
 15 16  2  0
  9 17  1  0
 17 18  1  0
 18 19  1  0
  5 20  1  0
 20 21  2  0
 21  2  1  0
 10  6  2  0
 16 11  1  0
 19  8  1  0
M  END
>  <Compound_ID>  (404) 
CHEMBL1909406

>  <Molecule Name>  (404) 
nan

>  <Molecular Weight>  (404) 
333.82

>  <AlogP>  (404) 
3.86

>  <Smiles>  (404) 
Fc1ccc(-c2nc3n(c2-c2ccncc2)CCS3)cc1

>  <Standard Type>  (404) 
Inhibition

>  <Standard Relation>  (404) 
'='

>  <Standard Units>  (404) 
%

>  <Standard Value>  (404) 
2.02

>  <Assay ChEMBL ID>  (404) 
CHEMBL1962175

>  <Assay Description>  (404) 
GSK_PKIS: SYK mean inhibition at 1 uM [Nanosyn]

>  <BAO Format ID>  (404) 
BAO_0000357

>  <BAO Label>  (404) 
single protein format

>  <Assay Organism>  (404) 
None

>  <Target ChEMBL ID>  (404) 
CHEMBL2599

>  <Target Name>  (404) 
Tyrosine-protein kinase SYK

>  <Target Organism>  (404) 
Homo sapiens

>  <Target Type>  (404) 
SINGLE PROTEIN

>  <Document ChEMBL ID>  (404) 
CHEMBL1961873

>  <Source Description>  (404) 
GSK Published Kinase Inhibitor Set

>  <Document Journal>  (404) 
nan

>  <Document Year>  (404) 
nan

>  <Active>  (404) 
0.0

>  <bits>  (404) 
<rdkit.DataStructs.cDataStructs.ExplicitBitVect object at 0x00000193F33E7530>

>  <Group>  (404) 
G2

$$$$

     RDKit          2D

 28 31  0  0  0  0  0  0  0  0999 V2000
    4.8308   -6.3240    0.0000 C   0  0  0  0  0  0  0  0  0  0  0  0
    4.6740   -4.8322    0.0000 C   0  0  0  0  0  0  0  0  0  0  0  0
    5.8875   -3.9505    0.0000 C   0  0  0  0  0  0  0  0  0  0  0  0
    3.3037   -4.2221    0.0000 N   0  0  0  0  0  0  0  0  0  0  0  0
    2.9918   -2.7549    0.0000 C   0  0  0  0  0  0  0  0  0  0  0  0
    1.5000   -2.5981    0.0000 C   0  0  0  0  0  0  0  0  0  0  0  0
    0.7500   -1.2990    0.0000 C   0  0  0  0  0  0  0  0  0  0  0  0
    1.5000    0.0000    0.0000 C   0  0  0  0  0  0  0  0  0  0  0  0
    0.7500    1.2990    0.0000 C   0  0  0  0  0  0  0  0  0  0  0  0
    1.5000    2.5981    0.0000 C   0  0  0  0  0  0  0  0  0  0  0  0
    3.0000    2.5981    0.0000 C   0  0  0  0  0  0  0  0  0  0  0  0
    3.7500    3.8971    0.0000 C   0  0  0  0  0  0  0  0  0  0  0  0
    3.0000    5.1962    0.0000 C   0  0  0  0  0  0  0  0  0  0  0  0
    3.7500    6.4952    0.0000 C   0  0  0  0  0  0  0  0  0  0  0  0
    5.2500    6.4952    0.0000 N   0  0  0  0  0  0  0  0  0  0  0  0
    6.0000    5.1962    0.0000 C   0  0  0  0  0  0  0  0  0  0  0  0
    7.5000    5.1962    0.0000 C   0  0  0  0  0  0  0  0  0  0  0  0
    8.2500    6.4952    0.0000 O   0  0  0  0  0  0  0  0  0  0  0  0
    7.5000    7.7942    0.0000 C   0  0  0  0  0  0  0  0  0  0  0  0
    6.0000    7.7942    0.0000 C   0  0  0  0  0  0  0  0  0  0  0  0
    1.5000    5.1962    0.0000 C   0  0  0  0  0  0  0  0  0  0  0  0
    0.7500    3.8971    0.0000 C   0  0  0  0  0  0  0  0  0  0  0  0
   -0.7500    1.2990    0.0000 C   0  0  0  0  0  0  0  0  0  0  0  0
   -1.5000    0.0000    0.0000 N   0  0  0  0  0  0  0  0  0  0  0  0
   -0.7500   -1.2990    0.0000 C   0  0  0  0  0  0  0  0  0  0  0  0
   -1.5000   -2.5981    0.0000 N   0  0  0  0  0  0  0  0  0  0  0  0
    0.8899   -3.9684    0.0000 N   0  0  0  0  0  0  0  0  0  0  0  0
    2.0046   -4.9721    0.0000 N   0  0  0  0  0  0  0  0  0  0  0  0
  1  2  1  0
  2  3  1  0
  2  4  1  0
  4  5  1  0
  5  6  2  0
  6  7  1  0
  7  8  2  0
  8  9  1  0
  9 10  1  0
 10 11  2  0
 11 12  1  0
 12 13  2  0
 13 14  1  0
 14 15  1  0
 15 16  1  0
 16 17  1  0
 17 18  1  0
 18 19  1  0
 19 20  1  0
 13 21  1  0
 21 22  2  0
  9 23  2  0
 23 24  1  0
 24 25  2  0
 25 26  1  0
  6 27  1  0
 27 28  2  0
 28  4  1  0
 25  7  1  0
 22 10  1  0
 20 15  1  0
M  END
>  <Compound_ID>  (405) 
CHEMBL3971067

>  <Molecule Name>  (405) 
nan

>  <Molecular Weight>  (405) 
378.48

>  <AlogP>  (405) 
3.00

>  <Smiles>  (405) 
CC(C)n1cc(-c2cc(-c3ccc(CN4CCOCC4)cc3)cnc2N)nn1

>  <Standard Type>  (405) 
Inhibition

>  <Standard Relation>  (405) 
'='

>  <Standard Units>  (405) 
%

>  <Standard Value>  (405) 
-24.0

>  <Assay ChEMBL ID>  (405) 
CHEMBL4045846

>  <Assay Description>  (405) 
Inhibition of SYK conserved Lys1 (TVAVKILK) in human PBMC at 1 uM

>  <BAO Format ID>  (405) 
BAO_0000357

>  <BAO Label>  (405) 
single protein format

>  <Assay Organism>  (405) 
Homo sapiens

>  <Target ChEMBL ID>  (405) 
CHEMBL2599

>  <Target Name>  (405) 
Tyrosine-protein kinase SYK

>  <Target Organism>  (405) 
Homo sapiens

>  <Target Type>  (405) 
SINGLE PROTEIN

>  <Document ChEMBL ID>  (405) 
CHEMBL4043168

>  <Source Description>  (405) 
Scientific Literature

>  <Document Journal>  (405) 
Bioorg Med Chem Lett

>  <Document Year>  (405) 
2017.0

>  <Active>  (405) 
0.0

>  <bits>  (405) 
<rdkit.DataStructs.cDataStructs.ExplicitBitVect object at 0x00000193F33E53F0>

>  <Group>  (405) 
G2

$$$$

     RDKit          2D

 33 36  0  0  0  0  0  0  0  0999 V2000
    3.0000    0.0000    0.0000 C   0  0  0  0  0  0  0  0  0  0  0  0
    1.5000    0.0000    0.0000 C   0  0  0  0  0  0  0  0  0  0  0  0
    0.7500   -1.2990    0.0000 C   0  0  0  0  0  0  0  0  0  0  0  0
   -0.7500   -1.2990    0.0000 C   0  0  0  0  0  0  0  0  0  0  0  0
   -1.5000    0.0000    0.0000 C   0  0  0  0  0  0  0  0  0  0  0  0
   -3.0000    0.0000    0.0000 C   0  0  0  0  0  0  0  0  0  0  0  0
   -3.7500   -1.2990    0.0000 O   0  0  0  0  0  0  0  0  0  0  0  0
   -3.7500    1.2990    0.0000 N   0  0  0  0  0  0  0  0  0  0  0  0
   -5.2500    1.2990    0.0000 C   0  0  0  0  0  0  0  0  0  0  0  0
   -6.0000    2.5981    0.0000 C   0  0  0  0  0  0  0  0  0  0  0  0
   -7.5000    2.5981    0.0000 C   0  0  0  0  0  0  0  0  0  0  0  0
   -8.2500    1.2990    0.0000 C   0  0  0  0  0  0  0  0  0  0  0  0
   -9.7500    1.2990    0.0000 Cl  0  0  0  0  0  0  0  0  0  0  0  0
   -7.5000    0.0000    0.0000 C   0  0  0  0  0  0  0  0  0  0  0  0
   -6.0000    0.0000    0.0000 C   0  0  0  0  0  0  0  0  0  0  0  0
   -5.2500   -1.2990    0.0000 Cl  0  0  0  0  0  0  0  0  0  0  0  0
   -0.7500    1.2990    0.0000 C   0  0  0  0  0  0  0  0  0  0  0  0
    0.7500    1.2990    0.0000 C   0  0  0  0  0  0  0  0  0  0  0  0
    1.5000    2.5981    0.0000 C   0  0  0  0  0  0  0  0  0  0  0  0
    2.2500    3.8971    0.0000 C   0  0  0  0  0  0  0  0  0  0  0  0
    3.0000    5.1962    0.0000 C   0  0  0  0  0  0  0  0  0  0  0  0
    4.5000    5.1962    0.0000 C   0  0  0  0  0  0  0  0  0  0  0  0
    5.2500    6.4952    0.0000 C   0  0  0  0  0  0  0  0  0  0  0  0
    6.7500    6.4952    0.0000 C   0  0  0  0  0  0  0  0  0  0  0  0
    7.6317    7.7087    0.0000 C   0  0  0  0  0  0  0  0  0  0  0  0
    9.0583    7.2452    0.0000 N   0  0  0  0  0  0  0  0  0  0  0  0
    9.0583    5.7452    0.0000 N   0  0  0  0  0  0  0  0  0  0  0  0
   10.2718    4.8635    0.0000 C   0  0  0  0  0  0  0  0  0  0  0  0
    7.6317    5.2817    0.0000 C   0  0  0  0  0  0  0  0  0  0  0  0
    4.5000    7.7942    0.0000 C   0  0  0  0  0  0  0  0  0  0  0  0
    3.0000    7.7942    0.0000 N   0  0  0  0  0  0  0  0  0  0  0  0
    2.2500    6.4952    0.0000 C   0  0  0  0  0  0  0  0  0  0  0  0
    0.7500    6.4952    0.0000 N   0  0  0  0  0  0  0  0  0  0  0  0
  1  2  1  0
  2  3  2  0
  3  4  1  0
  4  5  2  0
  5  6  1  0
  6  7  2  0
  6  8  1  0
  8  9  1  0
  9 10  2  0
 10 11  1  0
 11 12  2  0
 12 13  1  0
 12 14  1  0
 14 15  2  0
 15 16  1  0
  5 17  1  0
 17 18  2  0
 18 19  1  0
 19 20  3  0
 20 21  1  0
 21 22  2  0
 22 23  1  0
 23 24  1  0
 24 25  1  0
 25 26  2  0
 26 27  1  0
 27 28  1  0
 27 29  1  0
 23 30  2  0
 30 31  1  0
 31 32  2  0
 32 33  1  0
 18  2  1  0
 32 21  1  0
 15  9  1  0
 29 24  2  0
M  END
>  <Compound_ID>  (406) 
CHEMBL4467948

>  <Molecule Name>  (406) 
nan

>  <Molecular Weight>  (406) 
476.37

>  <AlogP>  (406) 
5.33

>  <Smiles>  (406) 
Cc1ccc(C(=O)Nc2ccc(Cl)cc2Cl)cc1C#Cc1cc(-c2cnn(C)c2)cnc1N

>  <Standard Type>  (406) 
Inhibition

>  <Standard Relation>  (406) 
'='

>  <Standard Units>  (406) 
%

>  <Standard Value>  (406) 
-3.0

>  <Assay ChEMBL ID>  (406) 
CHEMBL4839568

>  <Assay Description>  (406) 
Inhibition of human full length recombinant Syk at 50 nM by radiometric scintillation counting analysis relative to control

>  <BAO Format ID>  (406) 
BAO_0000357

>  <BAO Label>  (406) 
single protein format

>  <Assay Organism>  (406) 
Homo sapiens

>  <Target ChEMBL ID>  (406) 
CHEMBL2599

>  <Target Name>  (406) 
Tyrosine-protein kinase SYK

>  <Target Organism>  (406) 
Homo sapiens

>  <Target Type>  (406) 
SINGLE PROTEIN

>  <Document ChEMBL ID>  (406) 
CHEMBL4837249

>  <Source Description>  (406) 
Scientific Literature

>  <Document Journal>  (406) 
J Med Chem

>  <Document Year>  (406) 
2021.0

>  <Active>  (406) 
0.0

>  <bits>  (406) 
<rdkit.DataStructs.cDataStructs.ExplicitBitVect object at 0x00000193F33E5FC0>

>  <Group>  (406) 
G2

$$$$

     RDKit          2D

 37 42  0  0  0  0  0  0  0  0999 V2000
   -7.2258  -12.0188    0.0000 C   0  0  0  0  0  0  0  0  0  0  0  0
   -6.1111  -11.0151    0.0000 C   0  0  0  0  0  0  0  0  0  0  0  0
   -4.6845  -11.4787    0.0000 C   0  0  0  0  0  0  0  0  0  0  0  0
   -3.5698  -10.4750    0.0000 C   0  0  0  0  0  0  0  0  0  0  0  0
   -3.8817   -9.0078    0.0000 C   0  0  0  0  0  0  0  0  0  0  0  0
   -3.0000   -7.7942    0.0000 C   0  0  0  0  0  0  0  0  0  0  0  0
   -1.5000   -7.7942    0.0000 C   0  0  0  0  0  0  0  0  0  0  0  0
   -0.7500   -6.4952    0.0000 C   0  0  0  0  0  0  0  0  0  0  0  0
    0.7500   -6.4952    0.0000 C   0  0  0  0  0  0  0  0  0  0  0  0
    1.5000   -7.7942    0.0000 N   0  0  0  0  0  0  0  0  0  0  0  0
    0.7500   -9.0933    0.0000 C   0  0  0  0  0  0  0  0  0  0  0  0
    1.5000  -10.3923    0.0000 N   0  0  0  0  0  0  0  0  0  0  0  0
    0.7500  -11.6913    0.0000 C   0  0  0  0  0  0  0  0  0  0  0  0
   -0.7500  -11.6913    0.0000 C   0  0  0  0  0  0  0  0  0  0  0  0
   -1.5000  -12.9904    0.0000 C   0  0  0  0  0  0  0  0  0  0  0  0
   -0.7500  -14.2894    0.0000 C   0  0  0  0  0  0  0  0  0  0  0  0
    0.7500  -14.2894    0.0000 C   0  0  0  0  0  0  0  0  0  0  0  0
    1.5000  -12.9904    0.0000 C   0  0  0  0  0  0  0  0  0  0  0  0
    1.5000  -15.5885    0.0000 O   0  0  0  0  0  0  0  0  0  0  0  0
    0.7500  -16.8875    0.0000 C   0  0  0  0  0  0  0  0  0  0  0  0
   -0.7500  -16.8875    0.0000 C   0  0  0  0  0  0  0  0  0  0  0  0
   -1.5000  -15.5885    0.0000 O   0  0  0  0  0  0  0  0  0  0  0  0
   -0.7500   -9.0933    0.0000 N   0  0  0  0  0  0  0  0  0  0  0  0
   -3.8817   -6.5807    0.0000 C   0  0  0  0  0  0  0  0  0  0  0  0
   -3.4182   -5.1541    0.0000 C   0  0  0  0  0  0  0  0  0  0  0  0
   -1.9509   -4.8423    0.0000 C   0  0  0  0  0  0  0  0  0  0  0  0
   -1.4874   -3.4157    0.0000 C   0  0  0  0  0  0  0  0  0  0  0  0
   -2.4911   -2.3009    0.0000 C   0  0  0  0  0  0  0  0  0  0  0  0
   -2.0276   -0.8744    0.0000 C   0  0  0  0  0  0  0  0  0  0  0  0
   -1.5641    0.5522    0.0000 F   0  0  0  0  0  0  0  0  0  0  0  0
   -3.4542   -0.4108    0.0000 F   0  0  0  0  0  0  0  0  0  0  0  0
   -0.6010   -1.3379    0.0000 F   0  0  0  0  0  0  0  0  0  0  0  0
   -3.9583   -2.6128    0.0000 C   0  0  0  0  0  0  0  0  0  0  0  0
   -4.4218   -4.0394    0.0000 C   0  0  0  0  0  0  0  0  0  0  0  0
   -5.3083   -7.0442    0.0000 N   0  0  0  0  0  0  0  0  0  0  0  0
   -5.3083   -8.5442    0.0000 N   0  0  0  0  0  0  0  0  0  0  0  0
   -6.4230   -9.5479    0.0000 N   0  0  0  0  0  0  0  0  0  0  0  0
  1  2  1  0
  2  3  1  0
  3  4  2  0
  4  5  1  0
  5  6  2  0
  6  7  1  0
  7  8  2  0
  8  9  1  0
  9 10  2  0
 10 11  1  0
 11 12  1  0
 12 13  1  0
 13 14  2  0
 14 15  1  0
 15 16  2  0
 16 17  1  0
 17 18  2  0
 17 19  1  0
 19 20  1  0
 20 21  1  0
 21 22  1  0
 11 23  2  0
  6 24  1  0
 24 25  1  0
 25 26  2  0
 26 27  1  0
 27 28  2  0
 28 29  1  0
 29 30  1  0
 29 31  1  0
 29 32  1  0
 28 33  1  0
 33 34  2  0
 24 35  2  0
 35 36  1  0
 36 37  1  0
 37  2  2  0
 36  5  1  0
 23  7  1  0
 34 25  1  0
 18 13  1  0
 22 16  1  0
M  END
>  <Compound_ID>  (407) 
CHEMBL188247

>  <Molecule Name>  (407) 
GW832467X

>  <Molecular Weight>  (407) 
504.47

>  <AlogP>  (407) 
5.70

>  <Smiles>  (407) 
Cc1ccc2c(-c3ccnc(Nc4ccc5c(c4)OCCO5)n3)c(-c3ccc(C(F)(F)F)cc3)nn2n1

>  <Standard Type>  (407) 
Inhibition

>  <Standard Relation>  (407) 
'='

>  <Standard Units>  (407) 
%

>  <Standard Value>  (407) 
-0.8

>  <Assay ChEMBL ID>  (407) 
CHEMBL1962174

>  <Assay Description>  (407) 
GSK_PKIS: SYK mean inhibition at 0.1 uM [Nanosyn]

>  <BAO Format ID>  (407) 
BAO_0000357

>  <BAO Label>  (407) 
single protein format

>  <Assay Organism>  (407) 
None

>  <Target ChEMBL ID>  (407) 
CHEMBL2599

>  <Target Name>  (407) 
Tyrosine-protein kinase SYK

>  <Target Organism>  (407) 
Homo sapiens

>  <Target Type>  (407) 
SINGLE PROTEIN

>  <Document ChEMBL ID>  (407) 
CHEMBL1961873

>  <Source Description>  (407) 
GSK Published Kinase Inhibitor Set

>  <Document Journal>  (407) 
nan

>  <Document Year>  (407) 
nan

>  <Active>  (407) 
0.0

>  <bits>  (407) 
<rdkit.DataStructs.cDataStructs.ExplicitBitVect object at 0x00000193F33E60A0>

>  <Group>  (407) 
G2

$$$$

     RDKit          2D

 26 28  0  0  0  0  0  0  0  0999 V2000
   -3.7548   -2.1855    0.0000 C   0  0  0  0  0  0  0  0  0  0  0  0
   -2.6401   -3.1891    0.0000 C   0  0  0  0  0  0  0  0  0  0  0  0
   -1.2135   -2.7256    0.0000 N   0  0  0  0  0  0  0  0  0  0  0  0
   -0.0000   -3.6073    0.0000 C   0  0  0  0  0  0  0  0  0  0  0  0
   -0.0000   -5.1073    0.0000 C   0  0  0  0  0  0  0  0  0  0  0  0
    1.2135   -5.9890    0.0000 N   0  0  0  0  0  0  0  0  0  0  0  0
    0.7500   -7.4156    0.0000 O   0  0  0  0  0  0  0  0  0  0  0  0
   -0.7500   -7.4156    0.0000 N   0  0  0  0  0  0  0  0  0  0  0  0
   -1.2135   -5.9890    0.0000 C   0  0  0  0  0  0  0  0  0  0  0  0
   -2.6401   -5.5255    0.0000 N   0  0  0  0  0  0  0  0  0  0  0  0
    1.2135   -2.7256    0.0000 N   0  0  0  0  0  0  0  0  0  0  0  0
    0.7500   -1.2990    0.0000 C   0  0  0  0  0  0  0  0  0  0  0  0
    1.5000    0.0000    0.0000 C   0  0  0  0  0  0  0  0  0  0  0  0
    3.0000    0.0000    0.0000 C   0  0  0  0  0  0  0  0  0  0  0  0
    4.5000    0.0000    0.0000 C   0  0  0  0  0  0  0  0  0  0  0  0
    6.0000    0.0000    0.0000 C   0  0  0  0  0  0  0  0  0  0  0  0
    6.7500    1.2990    0.0000 N   0  0  0  0  0  0  0  0  0  0  0  0
    0.7500    1.2990    0.0000 N   0  0  0  0  0  0  0  0  0  0  0  0
   -0.7500    1.2990    0.0000 C   0  0  0  0  0  0  0  0  0  0  0  0
   -1.5000    0.0000    0.0000 C   0  0  0  0  0  0  0  0  0  0  0  0
   -3.0000    0.0000    0.0000 O   0  0  0  0  0  0  0  0  0  0  0  0
   -3.7500    1.2990    0.0000 C   0  0  0  0  0  0  0  0  0  0  0  0
   -5.2500    1.2990    0.0000 C   0  0  0  0  0  0  0  0  0  0  0  0
   -6.0000    2.5981    0.0000 C   0  0  0  0  0  0  0  0  0  0  0  0
   -7.5000    2.5981    0.0000 N   0  0  0  0  0  0  0  0  0  0  0  0
   -0.7500   -1.2990    0.0000 C   0  0  0  0  0  0  0  0  0  0  0  0
  1  2  1  0
  2  3  1  0
  3  4  1  0
  4  5  1  0
  5  6  2  0
  6  7  1  0
  7  8  1  0
  8  9  2  0
  9 10  1  0
  4 11  2  0
 11 12  1  0
 12 13  2  0
 13 14  1  0
 14 15  3  0
 15 16  1  0
 16 17  1  0
 13 18  1  0
 18 19  2  0
 19 20  1  0
 20 21  1  0
 21 22  1  0
 22 23  1  0
 23 24  1  0
 24 25  1  0
 20 26  2  0
 26  3  1  0
  9  5  1  0
 26 12  1  0
M  END
>  <Compound_ID>  (408) 
CHEMBL1794064

>  <Molecule Name>  (408) 
GSK-561866B

>  <Molecular Weight>  (408) 
470.41

>  <AlogP>  (408) 
0.12

>  <Smiles>  (408) 
CCn1c(-c2nonc2N)nc2c(C#CCN)ncc(OCCCN)c21

>  <Standard Type>  (408) 
Inhibition

>  <Standard Relation>  (408) 
'='

>  <Standard Units>  (408) 
%

>  <Standard Value>  (408) 
-0.1

>  <Assay ChEMBL ID>  (408) 
CHEMBL1962175

>  <Assay Description>  (408) 
GSK_PKIS: SYK mean inhibition at 1 uM [Nanosyn]

>  <BAO Format ID>  (408) 
BAO_0000357

>  <BAO Label>  (408) 
single protein format

>  <Assay Organism>  (408) 
None

>  <Target ChEMBL ID>  (408) 
CHEMBL2599

>  <Target Name>  (408) 
Tyrosine-protein kinase SYK

>  <Target Organism>  (408) 
Homo sapiens

>  <Target Type>  (408) 
SINGLE PROTEIN

>  <Document ChEMBL ID>  (408) 
CHEMBL1961873

>  <Source Description>  (408) 
GSK Published Kinase Inhibitor Set

>  <Document Journal>  (408) 
nan

>  <Document Year>  (408) 
nan

>  <Active>  (408) 
0.0

>  <bits>  (408) 
<rdkit.DataStructs.cDataStructs.ExplicitBitVect object at 0x00000193F33E7370>

>  <Group>  (408) 
G2

$$$$

     RDKit          2D

 21 24  0  0  0  0  0  0  0  0999 V2000
    1.2990   -5.8573    0.0000 C   0  0  0  0  0  0  0  0  0  0  0  0
   -0.0000   -5.1073    0.0000 C   0  0  0  0  0  0  0  0  0  0  0  0
   -0.0000   -3.6073    0.0000 C   0  0  0  0  0  0  0  0  0  0  0  0
    1.2135   -2.7256    0.0000 N   0  0  0  0  0  0  0  0  0  0  0  0
    0.7500   -1.2990    0.0000 N   0  0  0  0  0  0  0  0  0  0  0  0
    1.5000    0.0000    0.0000 N   0  0  0  0  0  0  0  0  0  0  0  0
    0.7500    1.2990    0.0000 C   0  0  0  0  0  0  0  0  0  0  0  0
   -0.7500    1.2990    0.0000 C   0  0  0  0  0  0  0  0  0  0  0  0
   -1.5000    0.0000    0.0000 C   0  0  0  0  0  0  0  0  0  0  0  0
   -0.7500   -1.2990    0.0000 C   0  0  0  0  0  0  0  0  0  0  0  0
   -1.2135   -2.7256    0.0000 C   0  0  0  0  0  0  0  0  0  0  0  0
   -2.6401   -3.1891    0.0000 C   0  0  0  0  0  0  0  0  0  0  0  0
   -3.7548   -2.1855    0.0000 C   0  0  0  0  0  0  0  0  0  0  0  0
   -5.1814   -2.6490    0.0000 C   0  0  0  0  0  0  0  0  0  0  0  0
   -5.4933   -4.1162    0.0000 N   0  0  0  0  0  0  0  0  0  0  0  0
   -4.3786   -5.1199    0.0000 C   0  0  0  0  0  0  0  0  0  0  0  0
   -4.6904   -6.5871    0.0000 N   0  0  0  0  0  0  0  0  0  0  0  0
   -6.1170   -7.0506    0.0000 C   0  0  0  0  0  0  0  0  0  0  0  0
   -7.1207   -8.1654    0.0000 C   0  0  0  0  0  0  0  0  0  0  0  0
   -7.5842   -6.7388    0.0000 C   0  0  0  0  0  0  0  0  0  0  0  0
   -2.9520   -4.6564    0.0000 N   0  0  0  0  0  0  0  0  0  0  0  0
  1  2  1  0
  2  3  1  0
  3  4  2  0
  4  5  1  0
  5  6  1  0
  6  7  2  0
  7  8  1  0
  8  9  2  0
  9 10  1  0
 10 11  2  0
 11 12  1  0
 12 13  2  0
 13 14  1  0
 14 15  2  0
 15 16  1  0
 16 17  1  0
 17 18  1  0
 18 19  1  0
 19 20  1  0
 16 21  2  0
 11  3  1  0
 21 12  1  0
 10  5  1  0
 20 18  1  0
M  END
>  <Compound_ID>  (409) 
CHEMBL524057

>  <Molecule Name>  (409) 
GW683768X

>  <Molecular Weight>  (409) 
280.34

>  <AlogP>  (409) 
2.32

>  <Smiles>  (409) 
CCc1nn2ncccc2c1-c1ccnc(NC2CC2)n1

>  <Standard Type>  (409) 
Inhibition

>  <Standard Relation>  (409) 
'='

>  <Standard Units>  (409) 
%

>  <Standard Value>  (409) 
0.63

>  <Assay ChEMBL ID>  (409) 
CHEMBL1962174

>  <Assay Description>  (409) 
GSK_PKIS: SYK mean inhibition at 0.1 uM [Nanosyn]

>  <BAO Format ID>  (409) 
BAO_0000357

>  <BAO Label>  (409) 
single protein format

>  <Assay Organism>  (409) 
None

>  <Target ChEMBL ID>  (409) 
CHEMBL2599

>  <Target Name>  (409) 
Tyrosine-protein kinase SYK

>  <Target Organism>  (409) 
Homo sapiens

>  <Target Type>  (409) 
SINGLE PROTEIN

>  <Document ChEMBL ID>  (409) 
CHEMBL1961873

>  <Source Description>  (409) 
GSK Published Kinase Inhibitor Set

>  <Document Journal>  (409) 
nan

>  <Document Year>  (409) 
nan

>  <Active>  (409) 
0.0

>  <bits>  (409) 
<rdkit.DataStructs.cDataStructs.ExplicitBitVect object at 0x00000193F33E7C30>

>  <Group>  (409) 
G2

$$$$

     RDKit          2D

 29 32  0  0  0  0  0  0  0  0999 V2000
   -3.1240   -6.3037    0.0000 C   0  0  0  0  0  0  0  0  0  0  0  0
   -3.1240   -4.8037    0.0000 O   0  0  0  0  0  0  0  0  0  0  0  0
   -4.4231   -4.0537    0.0000 C   0  0  0  0  0  0  0  0  0  0  0  0
   -5.7221   -4.8037    0.0000 C   0  0  0  0  0  0  0  0  0  0  0  0
   -7.0211   -4.0537    0.0000 C   0  0  0  0  0  0  0  0  0  0  0  0
   -8.3202   -4.8037    0.0000 C   0  0  0  0  0  0  0  0  0  0  0  0
   -9.6192   -4.0537    0.0000 O   0  0  0  0  0  0  0  0  0  0  0  0
   -7.0211   -2.5537    0.0000 C   0  0  0  0  0  0  0  0  0  0  0  0
   -5.7221   -1.8037    0.0000 C   0  0  0  0  0  0  0  0  0  0  0  0
   -4.4231   -2.5537    0.0000 C   0  0  0  0  0  0  0  0  0  0  0  0
   -3.1240   -1.8037    0.0000 C   0  0  0  0  0  0  0  0  0  0  0  0
   -1.7537   -2.4138    0.0000 C   0  0  0  0  0  0  0  0  0  0  0  0
   -0.7500   -1.2990    0.0000 C   0  0  0  0  0  0  0  0  0  0  0  0
    0.7500   -1.2990    0.0000 C   0  0  0  0  0  0  0  0  0  0  0  0
    1.5000   -2.5981    0.0000 N   0  0  0  0  0  0  0  0  0  0  0  0
    3.0000   -2.5981    0.0000 C   0  0  0  0  0  0  0  0  0  0  0  0
    3.7500   -1.2990    0.0000 C   0  0  0  0  0  0  0  0  0  0  0  0
    5.2500   -1.2990    0.0000 O   0  0  0  0  0  0  0  0  0  0  0  0
    3.7500   -3.8971    0.0000 C   0  0  0  0  0  0  0  0  0  0  0  0
    3.0000   -5.1962    0.0000 C   0  0  0  0  0  0  0  0  0  0  0  0
    3.7500   -6.4952    0.0000 C   0  0  0  0  0  0  0  0  0  0  0  0
    5.2500   -6.4952    0.0000 C   0  0  0  0  0  0  0  0  0  0  0  0
    6.0000   -5.1962    0.0000 C   0  0  0  0  0  0  0  0  0  0  0  0
    5.2500   -3.8971    0.0000 C   0  0  0  0  0  0  0  0  0  0  0  0
    1.5000    0.0000    0.0000 N   0  0  0  0  0  0  0  0  0  0  0  0
    0.7500    1.2990    0.0000 C   0  0  0  0  0  0  0  0  0  0  0  0
   -0.7500    1.2990    0.0000 N   0  0  0  0  0  0  0  0  0  0  0  0
   -1.5000    0.0000    0.0000 C   0  0  0  0  0  0  0  0  0  0  0  0
   -2.9672   -0.3119    0.0000 S   0  0  0  0  0  0  0  0  0  0  0  0
  1  2  1  0
  2  3  1  0
  3  4  2  0
  4  5  1  0
  5  6  1  0
  6  7  1  0
  5  8  2  0
  8  9  1  0
  9 10  2  0
 10 11  1  0
 11 12  2  0
 12 13  1  0
 13 14  2  0
 14 15  1  0
 15 16  1  0
 16 17  1  6
 17 18  1  0
 16 19  1  0
 19 20  2  0
 20 21  1  0
 21 22  2  0
 22 23  1  0
 23 24  2  0
 14 25  1  0
 25 26  2  0
 26 27  1  0
 27 28  2  0
 28 29  1  0
 10  3  1  0
 29 11  1  0
 28 13  1  0
 24 19  1  0
M  END
>  <Compound_ID>  (410) 
CHEMBL3758682

>  <Molecule Name>  (410) 
nan

>  <Molecular Weight>  (410) 
407.5

>  <AlogP>  (410) 
4.00

>  <Smiles>  (410) 
COc1cc(CO)ccc1-c1cc2c(N[C@H](CO)c3ccccc3)ncnc2s1

>  <Standard Type>  (410) 
Inhibition

>  <Standard Relation>  (410) 
'='

>  <Standard Units>  (410) 
%

>  <Standard Value>  (410) 
10.0

>  <Assay ChEMBL ID>  (410) 
CHEMBL3761605

>  <Assay Description>  (410) 
Inhibition of SYK (unknown origin) at 500 nM

>  <BAO Format ID>  (410) 
BAO_0000357

>  <BAO Label>  (410) 
single protein format

>  <Assay Organism>  (410) 
Homo sapiens

>  <Target ChEMBL ID>  (410) 
CHEMBL2599

>  <Target Name>  (410) 
Tyrosine-protein kinase SYK

>  <Target Organism>  (410) 
Homo sapiens

>  <Target Type>  (410) 
SINGLE PROTEIN

>  <Document ChEMBL ID>  (410) 
CHEMBL3758163

>  <Source Description>  (410) 
Scientific Literature

>  <Document Journal>  (410) 
Eur J Med Chem

>  <Document Year>  (410) 
2016.0

>  <Active>  (410) 
0.0

>  <bits>  (410) 
<rdkit.DataStructs.cDataStructs.ExplicitBitVect object at 0x00000193F33E51C0>

>  <Group>  (410) 
G2

$$$$

     RDKit          2D

 28 31  0  0  0  0  0  0  0  0999 V2000
   -3.1240   -6.3037    0.0000 C   0  0  0  0  0  0  0  0  0  0  0  0
   -3.1240   -4.8037    0.0000 O   0  0  0  0  0  0  0  0  0  0  0  0
   -4.4231   -4.0537    0.0000 C   0  0  0  0  0  0  0  0  0  0  0  0
   -5.7221   -4.8037    0.0000 C   0  0  0  0  0  0  0  0  0  0  0  0
   -7.0211   -4.0537    0.0000 C   0  0  0  0  0  0  0  0  0  0  0  0
   -8.3202   -4.8037    0.0000 C   0  0  0  0  0  0  0  0  0  0  0  0
   -9.6192   -4.0537    0.0000 O   0  0  0  0  0  0  0  0  0  0  0  0
   -7.0211   -2.5537    0.0000 C   0  0  0  0  0  0  0  0  0  0  0  0
   -5.7221   -1.8037    0.0000 C   0  0  0  0  0  0  0  0  0  0  0  0
   -4.4231   -2.5537    0.0000 C   0  0  0  0  0  0  0  0  0  0  0  0
   -3.1240   -1.8037    0.0000 C   0  0  0  0  0  0  0  0  0  0  0  0
   -1.7537   -2.4138    0.0000 C   0  0  0  0  0  0  0  0  0  0  0  0
   -0.7500   -1.2990    0.0000 C   0  0  0  0  0  0  0  0  0  0  0  0
    0.7500   -1.2990    0.0000 C   0  0  0  0  0  0  0  0  0  0  0  0
    1.5000   -2.5981    0.0000 N   0  0  0  0  0  0  0  0  0  0  0  0
    3.0000   -2.5981    0.0000 C   0  0  0  0  0  0  0  0  0  0  0  0
    3.7500   -3.8971    0.0000 C   0  0  0  0  0  0  0  0  0  0  0  0
    5.2500   -3.8971    0.0000 C   0  0  0  0  0  0  0  0  0  0  0  0
    6.0000   -2.5981    0.0000 C   0  0  0  0  0  0  0  0  0  0  0  0
    7.5000   -2.5981    0.0000 F   0  0  0  0  0  0  0  0  0  0  0  0
    5.2500   -1.2990    0.0000 C   0  0  0  0  0  0  0  0  0  0  0  0
    6.0000   -0.0000    0.0000 Cl  0  0  0  0  0  0  0  0  0  0  0  0
    3.7500   -1.2990    0.0000 C   0  0  0  0  0  0  0  0  0  0  0  0
    1.5000    0.0000    0.0000 N   0  0  0  0  0  0  0  0  0  0  0  0
    0.7500    1.2990    0.0000 C   0  0  0  0  0  0  0  0  0  0  0  0
   -0.7500    1.2990    0.0000 N   0  0  0  0  0  0  0  0  0  0  0  0
   -1.5000    0.0000    0.0000 C   0  0  0  0  0  0  0  0  0  0  0  0
   -2.9672   -0.3119    0.0000 S   0  0  0  0  0  0  0  0  0  0  0  0
  1  2  1  0
  2  3  1  0
  3  4  2  0
  4  5  1  0
  5  6  1  0
  6  7  1  0
  5  8  2  0
  8  9  1  0
  9 10  2  0
 10 11  1  0
 11 12  2  0
 12 13  1  0
 13 14  2  0
 14 15  1  0
 15 16  1  0
 16 17  2  0
 17 18  1  0
 18 19  2  0
 19 20  1  0
 19 21  1  0
 21 22  1  0
 21 23  2  0
 14 24  1  0
 24 25  2  0
 25 26  1  0
 26 27  2  0
 27 28  1  0
 10  3  1  0
 28 11  1  0
 27 13  1  0
 23 16  1  0
M  END
>  <Compound_ID>  (411) 
CHEMBL3758351

>  <Molecule Name>  (411) 
nan

>  <Molecular Weight>  (411) 
415.88

>  <AlogP>  (411) 
5.40

>  <Smiles>  (411) 
COc1cc(CO)ccc1-c1cc2c(Nc3ccc(F)c(Cl)c3)ncnc2s1

>  <Standard Type>  (411) 
Inhibition

>  <Standard Relation>  (411) 
'='

>  <Standard Units>  (411) 
%

>  <Standard Value>  (411) 
11.0

>  <Assay ChEMBL ID>  (411) 
CHEMBL3761605

>  <Assay Description>  (411) 
Inhibition of SYK (unknown origin) at 500 nM

>  <BAO Format ID>  (411) 
BAO_0000357

>  <BAO Label>  (411) 
single protein format

>  <Assay Organism>  (411) 
Homo sapiens

>  <Target ChEMBL ID>  (411) 
CHEMBL2599

>  <Target Name>  (411) 
Tyrosine-protein kinase SYK

>  <Target Organism>  (411) 
Homo sapiens

>  <Target Type>  (411) 
SINGLE PROTEIN

>  <Document ChEMBL ID>  (411) 
CHEMBL3758163

>  <Source Description>  (411) 
Scientific Literature

>  <Document Journal>  (411) 
Eur J Med Chem

>  <Document Year>  (411) 
2016.0

>  <Active>  (411) 
0.0

>  <bits>  (411) 
<rdkit.DataStructs.cDataStructs.ExplicitBitVect object at 0x00000193F33E5BD0>

>  <Group>  (411) 
G2

$$$$

     RDKit          2D

 32 36  0  0  0  0  0  0  0  0999 V2000
    3.0000    0.0000    0.0000 F   0  0  0  0  0  0  0  0  0  0  0  0
    1.5000    0.0000    0.0000 C   0  0  0  0  0  0  0  0  0  0  0  0
    0.7500   -1.2990    0.0000 C   0  0  0  0  0  0  0  0  0  0  0  0
   -0.7500   -1.2990    0.0000 C   0  0  0  0  0  0  0  0  0  0  0  0
   -1.5000    0.0000    0.0000 C   0  0  0  0  0  0  0  0  0  0  0  0
   -3.0000    0.0000    0.0000 O   0  0  0  0  0  0  0  0  0  0  0  0
   -3.7500    1.2990    0.0000 C   0  0  0  0  0  0  0  0  0  0  0  0
   -3.0000    2.5981    0.0000 N   0  0  0  0  0  0  0  0  0  0  0  0
   -3.7500    3.8971    0.0000 C   0  0  0  0  0  0  0  0  0  0  0  0
   -5.2500    3.8971    0.0000 C   0  0  0  0  0  0  0  0  0  0  0  0
   -6.0000    2.5981    0.0000 C   0  0  0  0  0  0  0  0  0  0  0  0
   -7.5000    2.5981    0.0000 C   0  0  0  0  0  0  0  0  0  0  0  0
   -8.3817    1.3846    0.0000 C   0  0  0  0  0  0  0  0  0  0  0  0
   -7.9182   -0.0420    0.0000 C   0  0  0  0  0  0  0  0  0  0  0  0
   -8.9218   -1.1568    0.0000 C   0  0  0  0  0  0  0  0  0  0  0  0
   -8.4583   -2.5833    0.0000 C   0  0  0  0  0  0  0  0  0  0  0  0
   -6.9911   -2.8952    0.0000 C   0  0  0  0  0  0  0  0  0  0  0  0
   -6.5276   -4.3218    0.0000 F   0  0  0  0  0  0  0  0  0  0  0  0
   -5.9874   -1.7805    0.0000 C   0  0  0  0  0  0  0  0  0  0  0  0
   -6.4509   -0.3539    0.0000 C   0  0  0  0  0  0  0  0  0  0  0  0
   -9.8083    1.8481    0.0000 N   0  0  0  0  0  0  0  0  0  0  0  0
   -9.8083    3.3481    0.0000 C   0  0  0  0  0  0  0  0  0  0  0  0
   -8.3817    3.8116    0.0000 N   0  0  0  0  0  0  0  0  0  0  0  0
   -7.9182    5.2382    0.0000 C   0  0  0  0  0  0  0  0  0  0  0  0
   -6.4509    5.5501    0.0000 C   0  0  0  0  0  0  0  0  0  0  0  0
   -5.9874    6.9766    0.0000 C   0  0  0  0  0  0  0  0  0  0  0  0
   -6.9911    8.0914    0.0000 N   0  0  0  0  0  0  0  0  0  0  0  0
   -8.4583    7.7795    0.0000 C   0  0  0  0  0  0  0  0  0  0  0  0
   -8.9218    6.3529    0.0000 C   0  0  0  0  0  0  0  0  0  0  0  0
   -5.2500    1.2990    0.0000 N   0  0  0  0  0  0  0  0  0  0  0  0
   -0.7500    1.2990    0.0000 C   0  0  0  0  0  0  0  0  0  0  0  0
    0.7500    1.2990    0.0000 C   0  0  0  0  0  0  0  0  0  0  0  0
  1  2  1  0
  2  3  2  0
  3  4  1  0
  4  5  2  0
  5  6  1  0
  6  7  1  0
  7  8  2  0
  8  9  1  0
  9 10  2  0
 10 11  1  0
 11 12  1  0
 12 13  2  0
 13 14  1  0
 14 15  2  0
 15 16  1  0
 16 17  2  0
 17 18  1  0
 17 19  1  0
 19 20  2  0
 13 21  1  0
 21 22  2  0
 22 23  1  0
 23 24  1  0
 24 25  1  0
 25 26  1  0
 26 27  1  0
 27 28  1  0
 28 29  1  0
 11 30  2  0
  5 31  1  0
 31 32  2  0
 32  2  1  0
 30  7  1  0
 23 12  1  0
 29 24  1  0
 20 14  1  0
M  END
>  <Compound_ID>  (412) 
CHEMBL269450

>  <Molecule Name>  (412) 
nan

>  <Molecular Weight>  (412) 
433.46

>  <AlogP>  (412) 
5.00

>  <Smiles>  (412) 
Fc1ccc(Oc2nccc(-c3c(-c4ccc(F)cc4)ncn3C3CCNCC3)n2)cc1

>  <Standard Type>  (412) 
Inhibition

>  <Standard Relation>  (412) 
'='

>  <Standard Units>  (412) 
%

>  <Standard Value>  (412) 
4.17

>  <Assay ChEMBL ID>  (412) 
CHEMBL1962175

>  <Assay Description>  (412) 
GSK_PKIS: SYK mean inhibition at 1 uM [Nanosyn]

>  <BAO Format ID>  (412) 
BAO_0000357

>  <BAO Label>  (412) 
single protein format

>  <Assay Organism>  (412) 
None

>  <Target ChEMBL ID>  (412) 
CHEMBL2599

>  <Target Name>  (412) 
Tyrosine-protein kinase SYK

>  <Target Organism>  (412) 
Homo sapiens

>  <Target Type>  (412) 
SINGLE PROTEIN

>  <Document ChEMBL ID>  (412) 
CHEMBL1961873

>  <Source Description>  (412) 
GSK Published Kinase Inhibitor Set

>  <Document Journal>  (412) 
nan

>  <Document Year>  (412) 
nan

>  <Active>  (412) 
0.0

>  <bits>  (412) 
<rdkit.DataStructs.cDataStructs.ExplicitBitVect object at 0x00000193F33E70D0>

>  <Group>  (412) 
G2

$$$$

     RDKit          2D

 17 18  0  0  0  0  0  0  0  0999 V2000
    3.7500   -1.2990    0.0000 C   0  0  0  0  0  0  0  0  0  0  0  0
    3.0000    0.0000    0.0000 O   0  0  0  0  0  0  0  0  0  0  0  0
    1.5000    0.0000    0.0000 C   0  0  0  0  0  0  0  0  0  0  0  0
    0.7500   -1.2990    0.0000 C   0  0  0  0  0  0  0  0  0  0  0  0
   -0.7500   -1.2990    0.0000 C   0  0  0  0  0  0  0  0  0  0  0  0
   -1.5000    0.0000    0.0000 C   0  0  0  0  0  0  0  0  0  0  0  0
   -3.0000    0.0000    0.0000 C   0  0  0  0  0  0  0  0  0  0  0  0
   -3.7500    1.2990    0.0000 C   0  0  0  0  0  0  0  0  0  0  0  0
   -5.2500    1.2990    0.0000 C   0  0  0  0  0  0  0  0  0  0  0  0
   -6.0000    0.0000    0.0000 N   0  0  0  0  0  0  0  0  0  0  0  0
   -5.2500   -1.2990    0.0000 C   0  0  0  0  0  0  0  0  0  0  0  0
   -3.7500   -1.2990    0.0000 C   0  0  0  0  0  0  0  0  0  0  0  0
   -0.7500    1.2990    0.0000 C   0  0  0  0  0  0  0  0  0  0  0  0
    0.7500    1.2990    0.0000 C   0  0  0  0  0  0  0  0  0  0  0  0
    1.5000    2.5981    0.0000 C   0  0  0  0  0  0  0  0  0  0  0  0
    3.0000    2.5981    0.0000 N   0  0  0  0  0  0  0  0  0  0  0  0
    0.7500    3.8971    0.0000 O   0  0  0  0  0  0  0  0  0  0  0  0
  1  2  1  0
  2  3  1  0
  3  4  2  0
  4  5  1  0
  5  6  2  0
  6  7  1  0
  7  8  2  0
  8  9  1  0
  9 10  2  0
 10 11  1  0
 11 12  2  0
  6 13  1  0
 13 14  2  0
 14 15  1  0
 15 16  1  0
 15 17  2  0
 14  3  1  0
 12  7  1  0
M  END
>  <Compound_ID>  (413) 
CHEMBL231013

>  <Molecule Name>  (413) 
GSK-605714A

>  <Molecular Weight>  (413) 
228.25

>  <AlogP>  (413) 
1.86

>  <Smiles>  (413) 
COc1ccc(-c2ccncc2)cc1C(N)=O

>  <Standard Type>  (413) 
Inhibition

>  <Standard Relation>  (413) 
'='

>  <Standard Units>  (413) 
%

>  <Standard Value>  (413) 
0.26

>  <Assay ChEMBL ID>  (413) 
CHEMBL1962175

>  <Assay Description>  (413) 
GSK_PKIS: SYK mean inhibition at 1 uM [Nanosyn]

>  <BAO Format ID>  (413) 
BAO_0000357

>  <BAO Label>  (413) 
single protein format

>  <Assay Organism>  (413) 
None

>  <Target ChEMBL ID>  (413) 
CHEMBL2599

>  <Target Name>  (413) 
Tyrosine-protein kinase SYK

>  <Target Organism>  (413) 
Homo sapiens

>  <Target Type>  (413) 
SINGLE PROTEIN

>  <Document ChEMBL ID>  (413) 
CHEMBL1961873

>  <Source Description>  (413) 
GSK Published Kinase Inhibitor Set

>  <Document Journal>  (413) 
nan

>  <Document Year>  (413) 
nan

>  <Active>  (413) 
0.0

>  <bits>  (413) 
<rdkit.DataStructs.cDataStructs.ExplicitBitVect object at 0x00000193F33E68F0>

>  <Group>  (413) 
G2

$$$$

     RDKit          2D

 17 19  0  0  0  0  0  0  0  0999 V2000
   -3.7548   -2.1855    0.0000 C   0  0  0  0  0  0  0  0  0  0  0  0
   -2.6401   -3.1891    0.0000 C   0  0  0  0  0  0  0  0  0  0  0  0
   -1.2135   -2.7256    0.0000 N   0  0  0  0  0  0  0  0  0  0  0  0
   -0.0000   -3.6073    0.0000 C   0  0  0  0  0  0  0  0  0  0  0  0
   -0.0000   -5.1073    0.0000 C   0  0  0  0  0  0  0  0  0  0  0  0
    1.2135   -5.9890    0.0000 N   0  0  0  0  0  0  0  0  0  0  0  0
    0.7500   -7.4156    0.0000 O   0  0  0  0  0  0  0  0  0  0  0  0
   -0.7500   -7.4156    0.0000 N   0  0  0  0  0  0  0  0  0  0  0  0
   -1.2135   -5.9890    0.0000 C   0  0  0  0  0  0  0  0  0  0  0  0
   -2.6401   -5.5255    0.0000 N   0  0  0  0  0  0  0  0  0  0  0  0
    1.2135   -2.7256    0.0000 N   0  0  0  0  0  0  0  0  0  0  0  0
    0.7500   -1.2990    0.0000 C   0  0  0  0  0  0  0  0  0  0  0  0
    1.5000    0.0000    0.0000 C   0  0  0  0  0  0  0  0  0  0  0  0
    0.7500    1.2990    0.0000 C   0  0  0  0  0  0  0  0  0  0  0  0
   -0.7500    1.2990    0.0000 C   0  0  0  0  0  0  0  0  0  0  0  0
   -1.5000    0.0000    0.0000 C   0  0  0  0  0  0  0  0  0  0  0  0
   -0.7500   -1.2990    0.0000 C   0  0  0  0  0  0  0  0  0  0  0  0
  1  2  1  0
  2  3  1  0
  3  4  1  0
  4  5  1  0
  5  6  2  0
  6  7  1  0
  7  8  1  0
  8  9  2  0
  9 10  1  0
  4 11  2  0
 11 12  1  0
 12 13  2  0
 13 14  1  0
 14 15  2  0
 15 16  1  0
 16 17  2  0
 17  3  1  0
  9  5  1  0
 17 12  1  0
M  END
>  <Compound_ID>  (414) 
CHEMBL365286

>  <Molecule Name>  (414) 
GW549034X

>  <Molecular Weight>  (414) 
229.24

>  <AlogP>  (414) 
1.69

>  <Smiles>  (414) 
CCn1c(-c2nonc2N)nc2ccccc21

>  <Standard Type>  (414) 
Inhibition

>  <Standard Relation>  (414) 
'='

>  <Standard Units>  (414) 
%

>  <Standard Value>  (414) 
0.1

>  <Assay ChEMBL ID>  (414) 
CHEMBL1962175

>  <Assay Description>  (414) 
GSK_PKIS: SYK mean inhibition at 1 uM [Nanosyn]

>  <BAO Format ID>  (414) 
BAO_0000357

>  <BAO Label>  (414) 
single protein format

>  <Assay Organism>  (414) 
None

>  <Target ChEMBL ID>  (414) 
CHEMBL2599

>  <Target Name>  (414) 
Tyrosine-protein kinase SYK

>  <Target Organism>  (414) 
Homo sapiens

>  <Target Type>  (414) 
SINGLE PROTEIN

>  <Document ChEMBL ID>  (414) 
CHEMBL1961873

>  <Source Description>  (414) 
GSK Published Kinase Inhibitor Set

>  <Document Journal>  (414) 
nan

>  <Document Year>  (414) 
nan

>  <Active>  (414) 
0.0

>  <bits>  (414) 
<rdkit.DataStructs.cDataStructs.ExplicitBitVect object at 0x00000193F33E71B0>

>  <Group>  (414) 
G2

$$$$

     RDKit          2D

 34 37  0  0  0  0  0  0  0  0999 V2000
   -9.1645    1.7722    0.0000 C   0  0  0  0  0  0  0  0  0  0  0  0
   -8.0498    0.7685    0.0000 O   0  0  0  0  0  0  0  0  0  0  0  0
   -6.6232    1.2320    0.0000 C   0  0  0  0  0  0  0  0  0  0  0  0
   -6.3114    2.6992    0.0000 C   0  0  0  0  0  0  0  0  0  0  0  0
   -4.8848    3.1627    0.0000 C   0  0  0  0  0  0  0  0  0  0  0  0
   -3.7701    2.1590    0.0000 C   0  0  0  0  0  0  0  0  0  0  0  0
   -4.0819    0.6918    0.0000 C   0  0  0  0  0  0  0  0  0  0  0  0
   -2.9672   -0.3119    0.0000 N   0  0  0  0  0  0  0  0  0  0  0  0
   -3.1240   -1.8037    0.0000 N   0  0  0  0  0  0  0  0  0  0  0  0
   -1.7537   -2.4138    0.0000 C   0  0  0  0  0  0  0  0  0  0  0  0
   -0.7500   -1.2990    0.0000 C   0  0  0  0  0  0  0  0  0  0  0  0
    0.7500   -1.2990    0.0000 C   0  0  0  0  0  0  0  0  0  0  0  0
    1.5000   -2.5981    0.0000 N   0  0  0  0  0  0  0  0  0  0  0  0
    3.0000   -2.5981    0.0000 N   0  0  0  0  0  0  0  0  0  0  0  0
    3.7500   -3.8971    0.0000 C   0  0  0  0  0  0  0  0  0  0  0  0
    5.2500   -3.8971    0.0000 C   0  0  0  0  0  0  0  0  0  0  0  0
    6.0000   -5.1962    0.0000 C   0  0  0  0  0  0  0  0  0  0  0  0
    7.5000   -5.1962    0.0000 C   0  0  0  0  0  0  0  0  0  0  0  0
    8.2500   -3.8971    0.0000 C   0  0  0  0  0  0  0  0  0  0  0  0
    9.7500   -3.8971    0.0000 C   0  0  0  0  0  0  0  0  0  0  0  0
   10.5000   -2.5981    0.0000 O   0  0  0  0  0  0  0  0  0  0  0  0
   10.5000   -5.1962    0.0000 N   0  0  0  0  0  0  0  0  0  0  0  0
   12.0000   -5.1962    0.0000 C   0  0  0  0  0  0  0  0  0  0  0  0
   12.7500   -6.4952    0.0000 C   0  0  0  0  0  0  0  0  0  0  0  0
   14.2500   -6.4952    0.0000 N   0  0  0  0  0  0  0  0  0  0  0  0
   15.0000   -7.7942    0.0000 C   0  0  0  0  0  0  0  0  0  0  0  0
   15.0000   -5.1962    0.0000 C   0  0  0  0  0  0  0  0  0  0  0  0
    7.5000   -2.5981    0.0000 C   0  0  0  0  0  0  0  0  0  0  0  0
    6.0000   -2.5981    0.0000 C   0  0  0  0  0  0  0  0  0  0  0  0
    1.5000    0.0000    0.0000 N   0  0  0  0  0  0  0  0  0  0  0  0
    0.7500    1.2990    0.0000 C   0  0  0  0  0  0  0  0  0  0  0  0
   -0.7500    1.2990    0.0000 N   0  0  0  0  0  0  0  0  0  0  0  0
   -1.5000    0.0000    0.0000 C   0  0  0  0  0  0  0  0  0  0  0  0
   -5.5085    0.2283    0.0000 C   0  0  0  0  0  0  0  0  0  0  0  0
  1  2  1  0
  2  3  1  0
  3  4  2  0
  4  5  1  0
  5  6  2  0
  6  7  1  0
  7  8  1  0
  8  9  1  0
  9 10  2  0
 10 11  1  0
 11 12  2  0
 12 13  1  0
 13 14  1  0
 14 15  2  0
 15 16  1  0
 16 17  2  0
 17 18  1  0
 18 19  2  0
 19 20  1  0
 20 21  2  0
 20 22  1  0
 22 23  1  0
 23 24  1  0
 24 25  1  0
 25 26  1  0
 25 27  1  0
 19 28  1  0
 28 29  2  0
 12 30  1  0
 30 31  2  0
 31 32  1  0
 32 33  2  0
  7 34  2  0
 34  3  1  0
 33  8  1  0
 33 11  1  0
 29 16  1  0
M  END
>  <Compound_ID>  (415) 
CHEMBL1909383

>  <Molecule Name>  (415) 
GW784307A

>  <Molecular Weight>  (415) 
494.99

>  <AlogP>  (415) 
2.56

>  <Smiles>  (415) 
COc1cccc(-n2ncc3c(N/N=C/c4ccc(C(=O)NCCN(C)C)cc4)ncnc32)c1

>  <Standard Type>  (415) 
Inhibition

>  <Standard Relation>  (415) 
'='

>  <Standard Units>  (415) 
%

>  <Standard Value>  (415) 
-2.88

>  <Assay ChEMBL ID>  (415) 
CHEMBL1962174

>  <Assay Description>  (415) 
GSK_PKIS: SYK mean inhibition at 0.1 uM [Nanosyn]

>  <BAO Format ID>  (415) 
BAO_0000357

>  <BAO Label>  (415) 
single protein format

>  <Assay Organism>  (415) 
None

>  <Target ChEMBL ID>  (415) 
CHEMBL2599

>  <Target Name>  (415) 
Tyrosine-protein kinase SYK

>  <Target Organism>  (415) 
Homo sapiens

>  <Target Type>  (415) 
SINGLE PROTEIN

>  <Document ChEMBL ID>  (415) 
CHEMBL1961873

>  <Source Description>  (415) 
GSK Published Kinase Inhibitor Set

>  <Document Journal>  (415) 
nan

>  <Document Year>  (415) 
nan

>  <Active>  (415) 
0.0

>  <bits>  (415) 
<rdkit.DataStructs.cDataStructs.ExplicitBitVect object at 0x00000193F33E7760>

>  <Group>  (415) 
G2

$$$$

     RDKit          2D

 29 33  0  0  0  0  0  0  0  0999 V2000
   -5.2046    0.1696    0.0000 N   0  0  0  0  0  0  0  0  0  0  0  0
   -5.6682   -1.2570    0.0000 C   0  0  0  0  0  0  0  0  0  0  0  0
   -6.1317   -2.6836    0.0000 C   0  0  0  0  0  0  0  0  0  0  0  0
   -5.2500   -3.8971    0.0000 C   0  0  0  0  0  0  0  0  0  0  0  0
   -3.7500   -3.8971    0.0000 N   0  0  0  0  0  0  0  0  0  0  0  0
   -3.0000   -2.5981    0.0000 C   0  0  0  0  0  0  0  0  0  0  0  0
   -3.7500   -1.2990    0.0000 O   0  0  0  0  0  0  0  0  0  0  0  0
   -1.5000   -2.5981    0.0000 C   0  0  0  0  0  0  0  0  0  0  0  0
   -0.7500   -3.8971    0.0000 C   0  0  0  0  0  0  0  0  0  0  0  0
    0.7500   -3.8971    0.0000 C   0  0  0  0  0  0  0  0  0  0  0  0
    1.5000   -2.5981    0.0000 C   0  0  0  0  0  0  0  0  0  0  0  0
    0.7500   -1.2990    0.0000 C   0  0  0  0  0  0  0  0  0  0  0  0
    1.5000    0.0000    0.0000 C   0  0  0  0  0  0  0  0  0  0  0  0
    0.7500    1.2990    0.0000 C   0  0  0  0  0  0  0  0  0  0  0  0
   -0.7500    1.2990    0.0000 C   0  0  0  0  0  0  0  0  0  0  0  0
   -1.5000    0.0000    0.0000 C   0  0  0  0  0  0  0  0  0  0  0  0
   -0.7500   -1.2990    0.0000 C   0  0  0  0  0  0  0  0  0  0  0  0
   -6.1317   -5.1106    0.0000 S   0  0  0  0  0  0  0  0  0  0  0  0
   -7.5583   -4.6471    0.0000 C   0  0  0  0  0  0  0  0  0  0  0  0
   -7.5583   -3.1471    0.0000 C   0  0  0  0  0  0  0  0  0  0  0  0
   -8.8573   -2.3971    0.0000 C   0  0  0  0  0  0  0  0  0  0  0  0
  -10.1563   -3.1471    0.0000 C   0  0  0  0  0  0  0  0  0  0  0  0
  -10.1563   -4.6471    0.0000 C   0  0  0  0  0  0  0  0  0  0  0  0
   -8.8573   -5.3971    0.0000 N   0  0  0  0  0  0  0  0  0  0  0  0
   -8.8573   -6.8971    0.0000 C   0  0  0  0  0  0  0  0  0  0  0  0
   -7.5583   -7.6471    0.0000 O   0  0  0  0  0  0  0  0  0  0  0  0
  -10.1563   -7.6471    0.0000 C   0  0  0  0  0  0  0  0  0  0  0  0
  -10.9063   -8.9462    0.0000 C   0  0  0  0  0  0  0  0  0  0  0  0
  -11.6563   -7.6471    0.0000 C   0  0  0  0  0  0  0  0  0  0  0  0
  1  2  3  0
  2  3  1  0
  3  4  2  0
  4  5  1  0
  5  6  1  0
  6  7  2  0
  6  8  1  0
  8  9  2  0
  9 10  1  0
 10 11  2  0
 11 12  1  0
 12 13  2  0
 13 14  1  0
 14 15  2  0
 15 16  1  0
 16 17  2  0
  4 18  1  0
 18 19  1  0
 19 20  2  0
 20 21  1  0
 21 22  1  0
 22 23  1  0
 23 24  1  0
 24 25  1  0
 25 26  2  0
 25 27  1  0
 27 28  1  0
 28 29  1  0
 20  3  1  0
 29 27  1  0
 17  8  1  0
 24 19  1  0
 17 12  1  0
M  END
>  <Compound_ID>  (416) 
CHEMBL232601

>  <Molecule Name>  (416) 
GW846105X

>  <Molecular Weight>  (416) 
401.49

>  <AlogP>  (416) 
4.71

>  <Smiles>  (416) 
N#Cc1c(NC(=O)c2cccc3ccccc23)sc2c1CCCN2C(=O)C1CC1

>  <Standard Type>  (416) 
Inhibition

>  <Standard Relation>  (416) 
'='

>  <Standard Units>  (416) 
%

>  <Standard Value>  (416) 
-4.96

>  <Assay ChEMBL ID>  (416) 
CHEMBL1962174

>  <Assay Description>  (416) 
GSK_PKIS: SYK mean inhibition at 0.1 uM [Nanosyn]

>  <BAO Format ID>  (416) 
BAO_0000357

>  <BAO Label>  (416) 
single protein format

>  <Assay Organism>  (416) 
None

>  <Target ChEMBL ID>  (416) 
CHEMBL2599

>  <Target Name>  (416) 
Tyrosine-protein kinase SYK

>  <Target Organism>  (416) 
Homo sapiens

>  <Target Type>  (416) 
SINGLE PROTEIN

>  <Document ChEMBL ID>  (416) 
CHEMBL1961873

>  <Source Description>  (416) 
GSK Published Kinase Inhibitor Set

>  <Document Journal>  (416) 
nan

>  <Document Year>  (416) 
nan

>  <Active>  (416) 
0.0

>  <bits>  (416) 
<rdkit.DataStructs.cDataStructs.ExplicitBitVect object at 0x00000193F33E4CF0>

>  <Group>  (416) 
G2

$$$$

     RDKit          2D

 31 35  0  0  0  0  0  0  0  0999 V2000
   12.7500   -1.2990    0.0000 F   0  0  0  0  0  0  0  0  0  0  0  0
   12.0000   -2.5981    0.0000 C   0  0  0  0  0  0  0  0  0  0  0  0
   12.7500   -3.8971    0.0000 C   0  0  0  0  0  0  0  0  0  0  0  0
   12.0000   -5.1962    0.0000 C   0  0  0  0  0  0  0  0  0  0  0  0
   10.5000   -5.1962    0.0000 C   0  0  0  0  0  0  0  0  0  0  0  0
    9.7500   -3.8971    0.0000 C   0  0  0  0  0  0  0  0  0  0  0  0
    8.2500   -3.8971    0.0000 C   0  0  0  0  0  0  0  0  0  0  0  0
    7.5000   -2.5981    0.0000 O   0  0  0  0  0  0  0  0  0  0  0  0
    6.0000   -2.5981    0.0000 C   0  0  0  0  0  0  0  0  0  0  0  0
    5.2500   -1.2990    0.0000 C   0  0  0  0  0  0  0  0  0  0  0  0
    3.7500   -1.2990    0.0000 C   0  0  0  0  0  0  0  0  0  0  0  0
    3.0000   -2.5981    0.0000 C   0  0  0  0  0  0  0  0  0  0  0  0
    1.5000   -2.5981    0.0000 N   0  0  0  0  0  0  0  0  0  0  0  0
    0.7500   -1.2990    0.0000 C   0  0  0  0  0  0  0  0  0  0  0  0
    1.5000    0.0000    0.0000 N   0  0  0  0  0  0  0  0  0  0  0  0
    0.7500    1.2990    0.0000 C   0  0  0  0  0  0  0  0  0  0  0  0
   -0.7500    1.2990    0.0000 N   0  0  0  0  0  0  0  0  0  0  0  0
   -1.5000    0.0000    0.0000 C   0  0  0  0  0  0  0  0  0  0  0  0
   -2.9672   -0.3119    0.0000 S   0  0  0  0  0  0  0  0  0  0  0  0
   -3.1240   -1.8037    0.0000 C   0  0  0  0  0  0  0  0  0  0  0  0
   -4.4231   -2.5537    0.0000 C   0  0  0  0  0  0  0  0  0  0  0  0
   -4.5798   -4.0454    0.0000 C   0  0  0  0  0  0  0  0  0  0  0  0
   -6.0471   -4.3573    0.0000 C   0  0  0  0  0  0  0  0  0  0  0  0
   -6.7971   -3.0583    0.0000 C   0  0  0  0  0  0  0  0  0  0  0  0
   -5.7934   -1.9435    0.0000 S   0  0  0  0  0  0  0  0  0  0  0  0
   -1.7537   -2.4138    0.0000 C   0  0  0  0  0  0  0  0  0  0  0  0
   -0.7500   -1.2990    0.0000 C   0  0  0  0  0  0  0  0  0  0  0  0
    3.7500   -3.8971    0.0000 C   0  0  0  0  0  0  0  0  0  0  0  0
    5.2500   -3.8971    0.0000 C   0  0  0  0  0  0  0  0  0  0  0  0
    6.0000   -5.1962    0.0000 Cl  0  0  0  0  0  0  0  0  0  0  0  0
   10.5000   -2.5981    0.0000 C   0  0  0  0  0  0  0  0  0  0  0  0
  1  2  1  0
  2  3  2  0
  3  4  1  0
  4  5  2  0
  5  6  1  0
  6  7  1  0
  7  8  1  0
  8  9  1  0
  9 10  2  0
 10 11  1  0
 11 12  2  0
 12 13  1  0
 13 14  1  0
 14 15  2  0
 15 16  1  0
 16 17  2  0
 17 18  1  0
 18 19  1  0
 19 20  1  0
 20 21  1  0
 21 22  2  0
 22 23  1  0
 23 24  2  0
 24 25  1  0
 20 26  2  0
 26 27  1  0
 12 28  1  0
 28 29  2  0
 29 30  1  0
  6 31  2  0
 31  2  1  0
 29  9  1  0
 27 14  1  0
 27 18  2  0
 25 21  1  0
M  END
>  <Compound_ID>  (417) 
CHEMBL506414

>  <Molecule Name>  (417) 
GW684626B

>  <Molecular Weight>  (417) 
467.98

>  <AlogP>  (417) 
7.53

>  <Smiles>  (417) 
Fc1cccc(COc2ccc(Nc3ncnc4sc(-c5cccs5)cc34)cc2Cl)c1

>  <Standard Type>  (417) 
Inhibition

>  <Standard Relation>  (417) 
'='

>  <Standard Units>  (417) 
%

>  <Standard Value>  (417) 
1.01

>  <Assay ChEMBL ID>  (417) 
CHEMBL1962175

>  <Assay Description>  (417) 
GSK_PKIS: SYK mean inhibition at 1 uM [Nanosyn]

>  <BAO Format ID>  (417) 
BAO_0000357

>  <BAO Label>  (417) 
single protein format

>  <Assay Organism>  (417) 
None

>  <Target ChEMBL ID>  (417) 
CHEMBL2599

>  <Target Name>  (417) 
Tyrosine-protein kinase SYK

>  <Target Organism>  (417) 
Homo sapiens

>  <Target Type>  (417) 
SINGLE PROTEIN

>  <Document ChEMBL ID>  (417) 
CHEMBL1961873

>  <Source Description>  (417) 
GSK Published Kinase Inhibitor Set

>  <Document Journal>  (417) 
nan

>  <Document Year>  (417) 
nan

>  <Active>  (417) 
0.0

>  <bits>  (417) 
<rdkit.DataStructs.cDataStructs.ExplicitBitVect object at 0x00000193F33E55B0>

>  <Group>  (417) 
G2

$$$$

     RDKit          2D

 32 36  0  0  0  0  0  0  0  0999 V2000
   -0.5773   -4.2803    0.0000 C   0  0  0  0  0  0  0  0  0  0  0  0
    0.8899   -3.9684    0.0000 C   0  0  0  0  0  0  0  0  0  0  0  0
    2.0046   -4.9721    0.0000 N   0  0  0  0  0  0  0  0  0  0  0  0
    3.3037   -4.2221    0.0000 N   0  0  0  0  0  0  0  0  0  0  0  0
    2.9918   -2.7549    0.0000 C   0  0  0  0  0  0  0  0  0  0  0  0
    3.9955   -1.6402    0.0000 C   0  0  0  0  0  0  0  0  0  0  0  0
    1.5000   -2.5981    0.0000 C   0  0  0  0  0  0  0  0  0  0  0  0
    0.7500   -1.2990    0.0000 C   0  0  0  0  0  0  0  0  0  0  0  0
    1.5000    0.0000    0.0000 C   0  0  0  0  0  0  0  0  0  0  0  0
    0.7500    1.2990    0.0000 C   0  0  0  0  0  0  0  0  0  0  0  0
   -0.7500    1.2990    0.0000 C   0  0  0  0  0  0  0  0  0  0  0  0
   -1.7537    2.4138    0.0000 C   0  0  0  0  0  0  0  0  0  0  0  0
   -1.4418    3.8810    0.0000 N   0  0  0  0  0  0  0  0  0  0  0  0
   -2.5565    4.8847    0.0000 C   0  0  0  0  0  0  0  0  0  0  0  0
   -3.9831    4.4211    0.0000 O   0  0  0  0  0  0  0  0  0  0  0  0
   -2.2447    6.3519    0.0000 C   0  0  0  0  0  0  0  0  0  0  0  0
   -0.8181    6.8154    0.0000 C   0  0  0  0  0  0  0  0  0  0  0  0
   -0.5062    8.2826    0.0000 C   0  0  0  0  0  0  0  0  0  0  0  0
   -1.6209    9.2863    0.0000 C   0  0  0  0  0  0  0  0  0  0  0  0
   -1.3091   10.7536    0.0000 N   0  0  0  0  0  0  0  0  0  0  0  0
    0.1175   11.2171    0.0000 C   0  0  0  0  0  0  0  0  0  0  0  0
    0.4294   12.6843    0.0000 C   0  0  0  0  0  0  0  0  0  0  0  0
   -0.6853   13.6880    0.0000 N   0  0  0  0  0  0  0  0  0  0  0  0
   -0.3735   15.1552    0.0000 C   0  0  0  0  0  0  0  0  0  0  0  0
   -2.1119   13.2245    0.0000 C   0  0  0  0  0  0  0  0  0  0  0  0
   -2.4238   11.7573    0.0000 C   0  0  0  0  0  0  0  0  0  0  0  0
   -3.0475    8.8228    0.0000 C   0  0  0  0  0  0  0  0  0  0  0  0
   -3.3594    7.3556    0.0000 C   0  0  0  0  0  0  0  0  0  0  0  0
   -3.1240    1.8037    0.0000 N   0  0  0  0  0  0  0  0  0  0  0  0
   -2.9672    0.3119    0.0000 N   0  0  0  0  0  0  0  0  0  0  0  0
   -1.5000    0.0000    0.0000 C   0  0  0  0  0  0  0  0  0  0  0  0
   -0.7500   -1.2990    0.0000 C   0  0  0  0  0  0  0  0  0  0  0  0
  1  2  1  0
  2  3  2  0
  3  4  1  0
  4  5  1  0
  5  6  1  0
  5  7  2  0
  7  8  1  0
  8  9  2  0
  9 10  1  0
 10 11  2  0
 11 12  1  0
 12 13  1  0
 13 14  1  0
 14 15  2  0
 14 16  1  0
 16 17  2  0
 17 18  1  0
 18 19  2  0
 19 20  1  0
 20 21  1  0
 21 22  1  0
 22 23  1  0
 23 24  1  0
 23 25  1  0
 25 26  1  0
 19 27  1  0
 27 28  2  0
 12 29  2  0
 29 30  1  0
 30 31  1  0
 31 32  2  0
  7  2  1  0
 32  8  1  0
 31 11  1  0
 28 16  1  0
 26 20  1  0
M  END
>  <Compound_ID>  (418) 
CHEMBL4095072

>  <Molecule Name>  (418) 
nan

>  <Molecular Weight>  (418) 
429.53

>  <AlogP>  (418) 
3.57

>  <Smiles>  (418) 
Cc1n[nH]c(C)c1-c1ccc2c(NC(=O)c3ccc(N4CCN(C)CC4)cc3)n[nH]c2c1

>  <Standard Type>  (418) 
Inhibition

>  <Standard Relation>  (418) 
'='

>  <Standard Units>  (418) 
%

>  <Standard Value>  (418) 
2.7

>  <Assay ChEMBL ID>  (418) 
CHEMBL4057391

>  <Assay Description>  (418) 
Inhibition of SYK (unknown origin) at 0.45 uM relative to control

>  <BAO Format ID>  (418) 
BAO_0000357

>  <BAO Label>  (418) 
single protein format

>  <Assay Organism>  (418) 
Homo sapiens

>  <Target ChEMBL ID>  (418) 
CHEMBL2599

>  <Target Name>  (418) 
Tyrosine-protein kinase SYK

>  <Target Organism>  (418) 
Homo sapiens

>  <Target Type>  (418) 
SINGLE PROTEIN

>  <Document ChEMBL ID>  (418) 
CHEMBL4052759

>  <Source Description>  (418) 
Scientific Literature

>  <Document Journal>  (418) 
Bioorg Med Chem Lett

>  <Document Year>  (418) 
2017.0

>  <Active>  (418) 
0.0

>  <bits>  (418) 
<rdkit.DataStructs.cDataStructs.ExplicitBitVect object at 0x00000193F33E5000>

>  <Group>  (418) 
G2

$$$$

     RDKit          2D

 23 25  0  0  0  0  0  0  0  0999 V2000
    3.0000   -5.1962    0.0000 C   0  0  0  0  0  0  0  0  0  0  0  0
    1.5000   -5.1962    0.0000 O   0  0  0  0  0  0  0  0  0  0  0  0
    0.7500   -3.8971    0.0000 C   0  0  0  0  0  0  0  0  0  0  0  0
    1.5000   -2.5981    0.0000 C   0  0  0  0  0  0  0  0  0  0  0  0
    0.7500   -1.2990    0.0000 C   0  0  0  0  0  0  0  0  0  0  0  0
    1.5000    0.0000    0.0000 N   0  0  0  0  0  0  0  0  0  0  0  0
    0.7500    1.2990    0.0000 C   0  0  0  0  0  0  0  0  0  0  0  0
   -0.7500    1.2990    0.0000 N   0  0  0  0  0  0  0  0  0  0  0  0
   -1.5000    0.0000    0.0000 C   0  0  0  0  0  0  0  0  0  0  0  0
   -3.0000    0.0000    0.0000 N   0  0  0  0  0  0  0  0  0  0  0  0
   -3.7500    1.2990    0.0000 C   0  0  0  0  0  0  0  0  0  0  0  0
   -3.0000    2.5981    0.0000 C   0  0  0  0  0  0  0  0  0  0  0  0
   -3.7500    3.8971    0.0000 C   0  0  0  0  0  0  0  0  0  0  0  0
   -5.2500    3.8971    0.0000 C   0  0  0  0  0  0  0  0  0  0  0  0
   -6.0000    5.1962    0.0000 C   0  0  0  0  0  0  0  0  0  0  0  0
   -6.0000    2.5981    0.0000 C   0  0  0  0  0  0  0  0  0  0  0  0
   -7.5000    2.5981    0.0000 O   0  0  0  0  0  0  0  0  0  0  0  0
   -5.2500    1.2990    0.0000 C   0  0  0  0  0  0  0  0  0  0  0  0
   -0.7500   -1.2990    0.0000 C   0  0  0  0  0  0  0  0  0  0  0  0
   -1.5000   -2.5981    0.0000 C   0  0  0  0  0  0  0  0  0  0  0  0
   -0.7500   -3.8971    0.0000 C   0  0  0  0  0  0  0  0  0  0  0  0
   -1.5000   -5.1962    0.0000 O   0  0  0  0  0  0  0  0  0  0  0  0
   -3.0000   -5.1962    0.0000 C   0  0  0  0  0  0  0  0  0  0  0  0
  1  2  1  0
  2  3  1  0
  3  4  2  0
  4  5  1  0
  5  6  2  0
  6  7  1  0
  7  8  2  0
  8  9  1  0
  9 10  1  0
 10 11  1  0
 11 12  2  0
 12 13  1  0
 13 14  2  0
 14 15  1  0
 14 16  1  0
 16 17  1  0
 16 18  2  0
  9 19  2  0
 19 20  1  0
 20 21  2  0
 21 22  1  0
 22 23  1  0
 21  3  1  0
 19  5  1  0
 18 11  1  0
M  END
>  <Compound_ID>  (419) 
CHEMBL1909357

>  <Molecule Name>  (419) 
GW410563A

>  <Molecular Weight>  (419) 
347.8

>  <AlogP>  (419) 
3.40

>  <Smiles>  (419) 
COc1cc2ncnc(Nc3ccc(C)c(O)c3)c2cc1OC

>  <Standard Type>  (419) 
Inhibition

>  <Standard Relation>  (419) 
'='

>  <Standard Units>  (419) 
%

>  <Standard Value>  (419) 
-4.37

>  <Assay ChEMBL ID>  (419) 
CHEMBL1962174

>  <Assay Description>  (419) 
GSK_PKIS: SYK mean inhibition at 0.1 uM [Nanosyn]

>  <BAO Format ID>  (419) 
BAO_0000357

>  <BAO Label>  (419) 
single protein format

>  <Assay Organism>  (419) 
None

>  <Target ChEMBL ID>  (419) 
CHEMBL2599

>  <Target Name>  (419) 
Tyrosine-protein kinase SYK

>  <Target Organism>  (419) 
Homo sapiens

>  <Target Type>  (419) 
SINGLE PROTEIN

>  <Document ChEMBL ID>  (419) 
CHEMBL1961873

>  <Source Description>  (419) 
GSK Published Kinase Inhibitor Set

>  <Document Journal>  (419) 
nan

>  <Document Year>  (419) 
nan

>  <Active>  (419) 
0.0

>  <bits>  (419) 
<rdkit.DataStructs.cDataStructs.ExplicitBitVect object at 0x00000193F33E78B0>

>  <Group>  (419) 
G2

$$$$

     RDKit          2D

 31 33  0  0  0  0  0  0  0  0999 V2000
    4.7010   -3.3481    0.0000 C   0  0  0  0  0  0  0  0  0  0  0  0
    6.0000   -2.5981    0.0000 C   0  0  0  0  0  0  0  0  0  0  0  0
    7.2990   -1.8481    0.0000 C   0  0  0  0  0  0  0  0  0  0  0  0
    6.7500   -3.8971    0.0000 C   0  0  0  0  0  0  0  0  0  0  0  0
    6.0000   -5.1962    0.0000 O   0  0  0  0  0  0  0  0  0  0  0  0
    5.2500   -1.2990    0.0000 C   0  0  0  0  0  0  0  0  0  0  0  0
    3.7500   -1.2990    0.0000 N   0  0  0  0  0  0  0  0  0  0  0  0
    3.0000    0.0000    0.0000 C   0  0  0  0  0  0  0  0  0  0  0  0
    3.7500    1.2990    0.0000 O   0  0  0  0  0  0  0  0  0  0  0  0
    1.5000    0.0000    0.0000 C   0  0  0  0  0  0  0  0  0  0  0  0
    0.7500   -1.2990    0.0000 C   0  0  0  0  0  0  0  0  0  0  0  0
   -0.7500   -1.2990    0.0000 C   0  0  0  0  0  0  0  0  0  0  0  0
   -1.5000    0.0000    0.0000 C   0  0  0  0  0  0  0  0  0  0  0  0
   -0.7500    1.2990    0.0000 C   0  0  0  0  0  0  0  0  0  0  0  0
    0.7500    1.2990    0.0000 C   0  0  0  0  0  0  0  0  0  0  0  0
   -1.7537    2.4138    0.0000 C   0  0  0  0  0  0  0  0  0  0  0  0
   -1.4418    3.8810    0.0000 N   0  0  0  0  0  0  0  0  0  0  0  0
   -2.5565    4.8847    0.0000 N   0  0  0  0  0  0  0  0  0  0  0  0
   -2.2447    6.3519    0.0000 C   0  0  0  0  0  0  0  0  0  0  0  0
   -0.8181    6.8154    0.0000 C   0  0  0  0  0  0  0  0  0  0  0  0
   -0.5062    8.2826    0.0000 C   0  0  0  0  0  0  0  0  0  0  0  0
   -1.6209    9.2863    0.0000 C   0  0  0  0  0  0  0  0  0  0  0  0
   -1.3091   10.7536    0.0000 S   0  0  0  0  0  0  0  0  0  0  0  0
   -0.9972   12.2208    0.0000 N   0  0  0  0  0  0  0  0  0  0  0  0
    0.1581   10.4417    0.0000 O   0  0  0  0  0  0  0  0  0  0  0  0
   -2.7763   11.0654    0.0000 O   0  0  0  0  0  0  0  0  0  0  0  0
   -3.0475    8.8228    0.0000 C   0  0  0  0  0  0  0  0  0  0  0  0
   -3.3594    7.3556    0.0000 C   0  0  0  0  0  0  0  0  0  0  0  0
   -3.1240    1.8037    0.0000 C   0  0  0  0  0  0  0  0  0  0  0  0
   -4.4231    2.5537    0.0000 O   0  0  0  0  0  0  0  0  0  0  0  0
   -2.9672    0.3119    0.0000 N   0  0  0  0  0  0  0  0  0  0  0  0
  1  2  1  0
  2  3  1  0
  2  4  1  0
  4  5  1  0
  2  6  1  0
  6  7  1  0
  7  8  1  0
  8  9  2  0
  8 10  1  0
 10 11  2  0
 11 12  1  0
 12 13  2  0
 13 14  1  0
 14 15  2  0
 14 16  1  0
 16 17  2  0
 17 18  1  0
 18 19  1  0
 19 20  2  0
 20 21  1  0
 21 22  2  0
 22 23  1  0
 23 24  1  0
 23 25  2  0
 23 26  2  0
 22 27  1  0
 27 28  2  0
 16 29  1  0
 29 30  2  0
 29 31  1  0
 15 10  1  0
 28 19  1  0
 31 13  1  0
M  END
>  <Compound_ID>  (420) 
CHEMBL410072

>  <Molecule Name>  (420) 
GW301784X

>  <Molecular Weight>  (420) 
445.5

>  <AlogP>  (420) 
0.85

>  <Smiles>  (420) 
CC(C)(CO)CNC(=O)c1ccc2c(c1)/C(=N/Nc1ccc(S(N)(=O)=O)cc1)C(=O)N2

>  <Standard Type>  (420) 
Inhibition

>  <Standard Relation>  (420) 
'='

>  <Standard Units>  (420) 
%

>  <Standard Value>  (420) 
-2.05

>  <Assay ChEMBL ID>  (420) 
CHEMBL1962175

>  <Assay Description>  (420) 
GSK_PKIS: SYK mean inhibition at 1 uM [Nanosyn]

>  <BAO Format ID>  (420) 
BAO_0000357

>  <BAO Label>  (420) 
single protein format

>  <Assay Organism>  (420) 
None

>  <Target ChEMBL ID>  (420) 
CHEMBL2599

>  <Target Name>  (420) 
Tyrosine-protein kinase SYK

>  <Target Organism>  (420) 
Homo sapiens

>  <Target Type>  (420) 
SINGLE PROTEIN

>  <Document ChEMBL ID>  (420) 
CHEMBL1961873

>  <Source Description>  (420) 
GSK Published Kinase Inhibitor Set

>  <Document Journal>  (420) 
nan

>  <Document Year>  (420) 
nan

>  <Active>  (420) 
0.0

>  <bits>  (420) 
<rdkit.DataStructs.cDataStructs.ExplicitBitVect object at 0x00000193F33E5460>

>  <Group>  (420) 
G2

$$$$

     RDKit          2D

 25 28  0  0  0  0  0  0  0  0999 V2000
    3.7500   -1.2990    0.0000 C   0  0  0  0  0  0  0  0  0  0  0  0
    3.0000    0.0000    0.0000 O   0  0  0  0  0  0  0  0  0  0  0  0
    1.5000    0.0000    0.0000 C   0  0  0  0  0  0  0  0  0  0  0  0
    0.7500   -1.2990    0.0000 C   0  0  0  0  0  0  0  0  0  0  0  0
   -0.7500   -1.2990    0.0000 C   0  0  0  0  0  0  0  0  0  0  0  0
   -1.5000    0.0000    0.0000 C   0  0  0  0  0  0  0  0  0  0  0  0
   -3.0000    0.0000    0.0000 C   0  0  0  0  0  0  0  0  0  0  0  0
   -3.7500    1.2990    0.0000 C   0  0  0  0  0  0  0  0  0  0  0  0
   -5.2500    1.2990    0.0000 C   0  0  0  0  0  0  0  0  0  0  0  0
   -6.0000    2.5981    0.0000 C   0  0  0  0  0  0  0  0  0  0  0  0
   -7.4918    2.7549    0.0000 C   0  0  0  0  0  0  0  0  0  0  0  0
   -7.8037    4.2221    0.0000 N   0  0  0  0  0  0  0  0  0  0  0  0
   -6.5046    4.9721    0.0000 N   0  0  0  0  0  0  0  0  0  0  0  0
   -5.3899    3.9684    0.0000 C   0  0  0  0  0  0  0  0  0  0  0  0
   -3.9227    4.2803    0.0000 C   0  0  0  0  0  0  0  0  0  0  0  0
   -2.9190    3.1655    0.0000 C   0  0  0  0  0  0  0  0  0  0  0  0
   -1.4518    3.4774    0.0000 C   0  0  0  0  0  0  0  0  0  0  0  0
   -0.9882    4.9040    0.0000 C   0  0  0  0  0  0  0  0  0  0  0  0
   -1.9919    6.0187    0.0000 C   0  0  0  0  0  0  0  0  0  0  0  0
   -3.4591    5.7068    0.0000 N   0  0  0  0  0  0  0  0  0  0  0  0
   -6.0000    0.0000    0.0000 C   0  0  0  0  0  0  0  0  0  0  0  0
   -5.2500   -1.2990    0.0000 C   0  0  0  0  0  0  0  0  0  0  0  0
   -3.7500   -1.2990    0.0000 N   0  0  0  0  0  0  0  0  0  0  0  0
   -0.7500    1.2990    0.0000 C   0  0  0  0  0  0  0  0  0  0  0  0
    0.7500    1.2990    0.0000 C   0  0  0  0  0  0  0  0  0  0  0  0
  1  2  1  0
  2  3  1  0
  3  4  2  0
  4  5  1  0
  5  6  2  0
  6  7  1  0
  7  8  2  0
  8  9  1  0
  9 10  1  0
 10 11  2  0
 11 12  1  0
 12 13  1  0
 13 14  2  0
 14 15  1  0
 15 16  2  0
 16 17  1  0
 17 18  2  0
 18 19  1  0
 19 20  2  0
  9 21  2  0
 21 22  1  0
 22 23  2  0
  6 24  1  0
 24 25  2  0
 25  3  1  0
 23  7  1  0
 14 10  1  0
 20 15  1  0
M  END
>  <Compound_ID>  (421) 
CHEMBL202891

>  <Molecule Name>  (421) 
GW679410X

>  <Molecular Weight>  (421) 
328.38

>  <AlogP>  (421) 
4.21

>  <Smiles>  (421) 
COc1ccc(-c2cc(-c3c[nH]nc3-c3ccccn3)ccn2)cc1

>  <Standard Type>  (421) 
Inhibition

>  <Standard Relation>  (421) 
'='

>  <Standard Units>  (421) 
%

>  <Standard Value>  (421) 
-0.69

>  <Assay ChEMBL ID>  (421) 
CHEMBL1962175

>  <Assay Description>  (421) 
GSK_PKIS: SYK mean inhibition at 1 uM [Nanosyn]

>  <BAO Format ID>  (421) 
BAO_0000357

>  <BAO Label>  (421) 
single protein format

>  <Assay Organism>  (421) 
None

>  <Target ChEMBL ID>  (421) 
CHEMBL2599

>  <Target Name>  (421) 
Tyrosine-protein kinase SYK

>  <Target Organism>  (421) 
Homo sapiens

>  <Target Type>  (421) 
SINGLE PROTEIN

>  <Document ChEMBL ID>  (421) 
CHEMBL1961873

>  <Source Description>  (421) 
GSK Published Kinase Inhibitor Set

>  <Document Journal>  (421) 
nan

>  <Document Year>  (421) 
nan

>  <Active>  (421) 
0.0

>  <bits>  (421) 
<rdkit.DataStructs.cDataStructs.ExplicitBitVect object at 0x00000193F33E5380>

>  <Group>  (421) 
G2

$$$$

     RDKit          2D

 20 20  0  0  0  0  0  0  0  0999 V2000
    7.5000   -2.5981    0.0000 C   0  0  0  0  0  0  0  0  0  0  0  0
    6.0000   -2.5981    0.0000 C   0  0  0  0  0  0  0  0  0  0  0  0
    5.2500   -1.2990    0.0000 C   0  0  0  0  0  0  0  0  0  0  0  0
    6.0000    0.0000    0.0000 O   0  0  0  0  0  0  0  0  0  0  0  0
    3.7500   -1.2990    0.0000 C   0  0  0  0  0  0  0  0  0  0  0  0
    3.0000    0.0000    0.0000 C   0  0  0  0  0  0  0  0  0  0  0  0
    1.5000    0.0000    0.0000 C   0  0  0  0  0  0  0  0  0  0  0  0
    0.7500   -1.2990    0.0000 C   0  0  0  0  0  0  0  0  0  0  0  0
   -0.7500   -1.2990    0.0000 C   0  0  0  0  0  0  0  0  0  0  0  0
   -1.5000    0.0000    0.0000 C   0  0  0  0  0  0  0  0  0  0  0  0
   -0.7500    1.2990    0.0000 C   0  0  0  0  0  0  0  0  0  0  0  0
    0.7500    1.2990    0.0000 C   0  0  0  0  0  0  0  0  0  0  0  0
    3.0000   -2.5981    0.0000 N   0  0  0  0  0  0  0  0  0  0  0  0
    3.7500   -3.8971    0.0000 C   0  0  0  0  0  0  0  0  0  0  0  0
    5.2500   -3.8971    0.0000 O   0  0  0  0  0  0  0  0  0  0  0  0
    3.0000   -5.1962    0.0000 O   0  0  0  0  0  0  0  0  0  0  0  0
    3.7500   -6.4952    0.0000 C   0  0  0  0  0  0  0  0  0  0  0  0
    2.4510   -7.2452    0.0000 C   0  0  0  0  0  0  0  0  0  0  0  0
    5.0490   -5.7452    0.0000 C   0  0  0  0  0  0  0  0  0  0  0  0
    4.5000   -7.7942    0.0000 C   0  0  0  0  0  0  0  0  0  0  0  0
  1  2  2  0
  2  3  1  0
  3  4  2  0
  3  5  1  0
  5  6  1  1
  6  7  1  0
  7  8  2  0
  8  9  1  0
  9 10  2  0
 10 11  1  0
 11 12  2  0
  5 13  1  0
 13 14  1  0
 14 15  2  0
 14 16  1  0
 16 17  1  0
 17 18  1  0
 17 19  1  0
 17 20  1  0
 12  7  1  0
M  END
>  <Compound_ID>  (422) 
CHEMBL3298512

>  <Molecule Name>  (422) 
nan

>  <Molecular Weight>  (422) 
275.35

>  <AlogP>  (422) 
2.88

>  <Smiles>  (422) 
C=CC(=O)[C@H](Cc1ccccc1)NC(=O)OC(C)(C)C

>  <Standard Type>  (422) 
Inhibition

>  <Standard Relation>  (422) 
'='

>  <Standard Units>  (422) 
%

>  <Standard Value>  (422) 
-1.0

>  <Assay ChEMBL ID>  (422) 
CHEMBL3364401

>  <Assay Description>  (422) 
Inhibition of SYK (unknown origin) at 1 uM in presence of 100 uM ATP

>  <BAO Format ID>  (422) 
BAO_0000357

>  <BAO Label>  (422) 
single protein format

>  <Assay Organism>  (422) 
Homo sapiens

>  <Target ChEMBL ID>  (422) 
CHEMBL2599

>  <Target Name>  (422) 
Tyrosine-protein kinase SYK

>  <Target Organism>  (422) 
Homo sapiens

>  <Target Type>  (422) 
SINGLE PROTEIN

>  <Document ChEMBL ID>  (422) 
CHEMBL3297689

>  <Source Description>  (422) 
Scientific Literature

>  <Document Journal>  (422) 
ACS Med Chem Lett

>  <Document Year>  (422) 
2014.0

>  <Active>  (422) 
0.0

>  <bits>  (422) 
<rdkit.DataStructs.cDataStructs.ExplicitBitVect object at 0x00000193F33E43C0>

>  <Group>  (422) 
G2

$$$$

     RDKit          2D

 36 40  0  0  0  0  0  0  0  0999 V2000
   -8.2322   -0.7949    0.0000 C   0  0  0  0  0  0  0  0  0  0  0  0
   -6.8056   -1.2584    0.0000 C   0  0  0  0  0  0  0  0  0  0  0  0
   -6.4937   -2.7256    0.0000 O   0  0  0  0  0  0  0  0  0  0  0  0
   -5.0672   -3.1891    0.0000 C   0  0  0  0  0  0  0  0  0  0  0  0
   -3.8536   -2.3075    0.0000 C   0  0  0  0  0  0  0  0  0  0  0  0
   -2.6401   -3.1891    0.0000 C   0  0  0  0  0  0  0  0  0  0  0  0
   -1.2135   -2.7256    0.0000 N   0  0  0  0  0  0  0  0  0  0  0  0
   -0.0000   -3.6073    0.0000 C   0  0  0  0  0  0  0  0  0  0  0  0
    1.2135   -2.7256    0.0000 N   0  0  0  0  0  0  0  0  0  0  0  0
    0.7500   -1.2990    0.0000 C   0  0  0  0  0  0  0  0  0  0  0  0
    1.5000    0.0000    0.0000 C   0  0  0  0  0  0  0  0  0  0  0  0
    0.7500    1.2990    0.0000 C   0  0  0  0  0  0  0  0  0  0  0  0
   -0.7500    1.2990    0.0000 C   0  0  0  0  0  0  0  0  0  0  0  0
   -1.5000    2.5981    0.0000 O   0  0  0  0  0  0  0  0  0  0  0  0
   -0.7500    3.8971    0.0000 C   0  0  0  0  0  0  0  0  0  0  0  0
   -1.5000    5.1962    0.0000 C   0  0  0  0  0  0  0  0  0  0  0  0
   -0.7500    6.4952    0.0000 C   0  0  0  0  0  0  0  0  0  0  0  0
   -1.5000    7.7942    0.0000 C   0  0  0  0  0  0  0  0  0  0  0  0
   -3.0000    7.7942    0.0000 N   0  0  0  0  0  0  0  0  0  0  0  0
   -3.7500    9.0933    0.0000 C   0  0  0  0  0  0  0  0  0  0  0  0
   -3.7500    6.4952    0.0000 C   0  0  0  0  0  0  0  0  0  0  0  0
   -3.0000    5.1962    0.0000 C   0  0  0  0  0  0  0  0  0  0  0  0
   -1.5000    0.0000    0.0000 C   0  0  0  0  0  0  0  0  0  0  0  0
   -0.7500   -1.2990    0.0000 C   0  0  0  0  0  0  0  0  0  0  0  0
   -3.1036   -4.6157    0.0000 S   0  0  0  0  0  0  0  0  0  0  0  0
   -4.6036   -4.6157    0.0000 C   0  0  0  0  0  0  0  0  0  0  0  0
   -5.4853   -5.8293    0.0000 C   0  0  0  0  0  0  0  0  0  0  0  0
   -4.8752   -7.1996    0.0000 N   0  0  0  0  0  0  0  0  0  0  0  0
   -6.9771   -5.6725    0.0000 O   0  0  0  0  0  0  0  0  0  0  0  0
   -5.6909   -0.2547    0.0000 C   0  0  0  0  0  0  0  0  0  0  0  0
   -4.2643   -0.7182    0.0000 C   0  0  0  0  0  0  0  0  0  0  0  0
   -3.1496    0.2855    0.0000 C   0  0  0  0  0  0  0  0  0  0  0  0
   -3.4615    1.7527    0.0000 C   0  0  0  0  0  0  0  0  0  0  0  0
   -4.8880    2.2162    0.0000 C   0  0  0  0  0  0  0  0  0  0  0  0
   -6.0028    1.2125    0.0000 C   0  0  0  0  0  0  0  0  0  0  0  0
   -7.4293    1.6760    0.0000 Cl  0  0  0  0  0  0  0  0  0  0  0  0
  2  1  1  6
  2  3  1  0
  3  4  1  0
  4  5  1  0
  5  6  2  0
  6  7  1  0
  7  8  1  0
  8  9  2  0
  9 10  1  0
 10 11  2  0
 11 12  1  0
 12 13  2  0
 13 14  1  0
 14 15  1  0
 15 16  1  0
 16 17  1  0
 17 18  1  0
 18 19  1  0
 19 20  1  0
 19 21  1  0
 21 22  1  0
 13 23  1  0
 23 24  2  0
  6 25  1  0
 25 26  1  0
 26 27  1  0
 27 28  1  0
 27 29  2  0
  2 30  1  0
 30 31  2  0
 31 32  1  0
 32 33  2  0
 33 34  1  0
 34 35  2  0
 35 36  1  0
 26  4  2  0
 35 30  1  0
 24  7  1  0
 24 10  1  0
 22 16  1  0
M  END
>  <Compound_ID>  (423) 
CHEMBL1794069

>  <Molecule Name>  (423) 
GSK-571989A

>  <Molecular Weight>  (423) 
525.07

>  <AlogP>  (423) 
5.70

>  <Smiles>  (423) 
C[C@@H](Oc1cc(-n2cnc3ccc(OCC4CCN(C)CC4)cc32)sc1C(N)=O)c1ccccc1Cl

>  <Standard Type>  (423) 
Inhibition

>  <Standard Relation>  (423) 
'='

>  <Standard Units>  (423) 
%

>  <Standard Value>  (423) 
2.34

>  <Assay ChEMBL ID>  (423) 
CHEMBL1962175

>  <Assay Description>  (423) 
GSK_PKIS: SYK mean inhibition at 1 uM [Nanosyn]

>  <BAO Format ID>  (423) 
BAO_0000357

>  <BAO Label>  (423) 
single protein format

>  <Assay Organism>  (423) 
None

>  <Target ChEMBL ID>  (423) 
CHEMBL2599

>  <Target Name>  (423) 
Tyrosine-protein kinase SYK

>  <Target Organism>  (423) 
Homo sapiens

>  <Target Type>  (423) 
SINGLE PROTEIN

>  <Document ChEMBL ID>  (423) 
CHEMBL1961873

>  <Source Description>  (423) 
GSK Published Kinase Inhibitor Set

>  <Document Journal>  (423) 
nan

>  <Document Year>  (423) 
nan

>  <Active>  (423) 
0.0

>  <bits>  (423) 
<rdkit.DataStructs.cDataStructs.ExplicitBitVect object at 0x00000193F33E4C10>

>  <Group>  (423) 
G2

$$$$

     RDKit          2D

 20 23  0  0  0  0  0  0  0  0999 V2000
   -2.6401   -3.1891    0.0000 C   0  0  0  0  0  0  0  0  0  0  0  0
   -1.2135   -2.7256    0.0000 C   0  0  0  0  0  0  0  0  0  0  0  0
   -0.0000   -3.6073    0.0000 N   0  0  0  0  0  0  0  0  0  0  0  0
    1.2135   -2.7256    0.0000 N   0  0  0  0  0  0  0  0  0  0  0  0
    0.7500   -1.2990    0.0000 C   0  0  0  0  0  0  0  0  0  0  0  0
    1.5000    0.0000    0.0000 C   0  0  0  0  0  0  0  0  0  0  0  0
    0.7500    1.2990    0.0000 C   0  0  0  0  0  0  0  0  0  0  0  0
   -0.7500    1.2990    0.0000 N   0  0  0  0  0  0  0  0  0  0  0  0
   -1.5000    0.0000    0.0000 C   0  0  0  0  0  0  0  0  0  0  0  0
   -3.0000    0.0000    0.0000 N   0  0  0  0  0  0  0  0  0  0  0  0
   -3.7500    1.2990    0.0000 C   0  0  0  0  0  0  0  0  0  0  0  0
   -3.0000    2.5981    0.0000 C   0  0  0  0  0  0  0  0  0  0  0  0
   -3.7500    3.8971    0.0000 C   0  0  0  0  0  0  0  0  0  0  0  0
   -5.2500    3.8971    0.0000 C   0  0  0  0  0  0  0  0  0  0  0  0
   -6.2537    5.0118    0.0000 N   0  0  0  0  0  0  0  0  0  0  0  0
   -7.6240    4.4017    0.0000 C   0  0  0  0  0  0  0  0  0  0  0  0
   -7.4672    2.9099    0.0000 S   0  0  0  0  0  0  0  0  0  0  0  0
   -6.0000    2.5981    0.0000 C   0  0  0  0  0  0  0  0  0  0  0  0
   -5.2500    1.2990    0.0000 C   0  0  0  0  0  0  0  0  0  0  0  0
   -0.7500   -1.2990    0.0000 C   0  0  0  0  0  0  0  0  0  0  0  0
  1  2  1  0
  2  3  2  0
  3  4  1  0
  4  5  1  0
  5  6  2  0
  6  7  1  0
  7  8  2  0
  8  9  1  0
  9 10  1  0
 10 11  1  0
 11 12  2  0
 12 13  1  0
 13 14  2  0
 14 15  1  0
 15 16  2  0
 16 17  1  0
 17 18  1  0
 18 19  2  0
  9 20  2  0
 20  2  1  0
 20  5  1  0
 19 11  1  0
 18 14  1  0
M  END
>  <Compound_ID>  (424) 
CHEMBL4588446

>  <Molecule Name>  (424) 
nan

>  <Molecular Weight>  (424) 
281.34

>  <AlogP>  (424) 
3.62

>  <Smiles>  (424) 
Cc1n[nH]c2ccnc(Nc3ccc4ncsc4c3)c12

>  <Standard Type>  (424) 
Inhibition

>  <Standard Relation>  (424) 
'='

>  <Standard Units>  (424) 
%

>  <Standard Value>  (424) 
0.0

>  <Assay ChEMBL ID>  (424) 
CHEMBL4331961

>  <Assay Description>  (424) 
Inhibition of SYK (unknown origin) at 10 uM relative to control

>  <BAO Format ID>  (424) 
BAO_0000357

>  <BAO Label>  (424) 
single protein format

>  <Assay Organism>  (424) 
Homo sapiens

>  <Target ChEMBL ID>  (424) 
CHEMBL2599

>  <Target Name>  (424) 
Tyrosine-protein kinase SYK

>  <Target Organism>  (424) 
Homo sapiens

>  <Target Type>  (424) 
SINGLE PROTEIN

>  <Document ChEMBL ID>  (424) 
CHEMBL4330096

>  <Source Description>  (424) 
Scientific Literature

>  <Document Journal>  (424) 
Bioorg Med Chem Lett

>  <Document Year>  (424) 
2019.0

>  <Active>  (424) 
0.0

>  <bits>  (424) 
<rdkit.DataStructs.cDataStructs.ExplicitBitVect object at 0x00000193F33E6180>

>  <Group>  (424) 
G2

$$$$

     RDKit          2D

 32 35  0  0  0  0  0  0  0  0999 V2000
    3.7500  -11.6913    0.0000 C   0  0  0  0  0  0  0  0  0  0  0  0
    3.0000  -10.3923    0.0000 N   0  0  0  0  0  0  0  0  0  0  0  0
    1.5000  -10.3923    0.0000 C   0  0  0  0  0  0  0  0  0  0  0  0
    0.7500   -9.0933    0.0000 C   0  0  0  0  0  0  0  0  0  0  0  0
    1.5000   -7.7942    0.0000 N   0  0  0  0  0  0  0  0  0  0  0  0
    0.7500   -6.4952    0.0000 C   0  0  0  0  0  0  0  0  0  0  0  0
    1.5000   -5.1962    0.0000 C   0  0  0  0  0  0  0  0  0  0  0  0
    0.7500   -3.8971    0.0000 C   0  0  0  0  0  0  0  0  0  0  0  0
    1.5000   -2.5981    0.0000 N   0  0  0  0  0  0  0  0  0  0  0  0
    0.7500   -1.2990    0.0000 C   0  0  0  0  0  0  0  0  0  0  0  0
    1.5000    0.0000    0.0000 N   0  0  0  0  0  0  0  0  0  0  0  0
    0.7500    1.2990    0.0000 C   0  0  0  0  0  0  0  0  0  0  0  0
   -0.7500    1.2990    0.0000 C   0  0  0  0  0  0  0  0  0  0  0  0
   -1.5000    2.5981    0.0000 C   0  0  0  0  0  0  0  0  0  0  0  0
   -3.0000    2.5981    0.0000 C   0  0  0  0  0  0  0  0  0  0  0  0
   -3.7500    3.8971    0.0000 O   0  0  0  0  0  0  0  0  0  0  0  0
   -3.0000    5.1962    0.0000 C   0  0  0  0  0  0  0  0  0  0  0  0
   -1.5000    5.1962    0.0000 C   0  0  0  0  0  0  0  0  0  0  0  0
   -0.7500    6.4952    0.0000 C   0  0  0  0  0  0  0  0  0  0  0  0
   -1.5000    7.7942    0.0000 C   0  0  0  0  0  0  0  0  0  0  0  0
   -0.7500    9.0933    0.0000 F   0  0  0  0  0  0  0  0  0  0  0  0
   -3.0000    7.7942    0.0000 C   0  0  0  0  0  0  0  0  0  0  0  0
   -3.7500    6.4952    0.0000 C   0  0  0  0  0  0  0  0  0  0  0  0
   -5.2500    6.4952    0.0000 F   0  0  0  0  0  0  0  0  0  0  0  0
   -3.7500    1.2990    0.0000 C   0  0  0  0  0  0  0  0  0  0  0  0
   -5.2500    1.2990    0.0000 O   0  0  0  0  0  0  0  0  0  0  0  0
   -3.0000    0.0000    0.0000 N   0  0  0  0  0  0  0  0  0  0  0  0
   -3.7500   -1.2990    0.0000 C   0  0  0  0  0  0  0  0  0  0  0  0
   -1.5000    0.0000    0.0000 C   0  0  0  0  0  0  0  0  0  0  0  0
   -0.7500   -1.2990    0.0000 N   0  0  0  0  0  0  0  0  0  0  0  0
    3.0000   -7.7942    0.0000 C   0  0  0  0  0  0  0  0  0  0  0  0
    3.7500   -9.0933    0.0000 C   0  0  0  0  0  0  0  0  0  0  0  0
  1  2  1  0
  2  3  1  0
  3  4  1  0
  4  5  1  0
  5  6  1  0
  6  7  1  0
  7  8  1  0
  8  9  1  0
  9 10  1  0
 10 11  2  0
 11 12  1  0
 12 13  2  0
 13 14  1  0
 14 15  2  0
 15 16  1  0
 16 17  1  0
 17 18  2  0
 18 19  1  0
 19 20  2  0
 20 21  1  0
 20 22  1  0
 22 23  2  0
 23 24  1  0
 15 25  1  0
 25 26  2  0
 25 27  1  0
 27 28  1  0
 27 29  1  0
 29 30  2  0
  5 31  1  0
 31 32  1  0
 32  2  1  0
 30 10  1  0
 29 13  1  0
 23 17  1  0
M  END
>  <Compound_ID>  (425) 
CHEMBL3746022

>  <Molecule Name>  (425) 
nan

>  <Molecular Weight>  (425) 
444.49

>  <AlogP>  (425) 
2.45

>  <Smiles>  (425) 
CN1CCN(CCCNc2ncc3cc(Oc4ccc(F)cc4F)c(=O)n(C)c3n2)CC1

>  <Standard Type>  (425) 
Inhibition

>  <Standard Relation>  (425) 
'='

>  <Standard Units>  (425) 
%

>  <Standard Value>  (425) 
0.0

>  <Assay ChEMBL ID>  (425) 
CHEMBL3750776

>  <Assay Description>  (425) 
Inhibition of SYK (unknown origin) at 10 uM

>  <BAO Format ID>  (425) 
BAO_0000357

>  <BAO Label>  (425) 
single protein format

>  <Assay Organism>  (425) 
Homo sapiens

>  <Target ChEMBL ID>  (425) 
CHEMBL2599

>  <Target Name>  (425) 
Tyrosine-protein kinase SYK

>  <Target Organism>  (425) 
Homo sapiens

>  <Target Type>  (425) 
SINGLE PROTEIN

>  <Document ChEMBL ID>  (425) 
CHEMBL3745672

>  <Source Description>  (425) 
Scientific Literature

>  <Document Journal>  (425) 
Bioorg Med Chem Lett

>  <Document Year>  (425) 
2016.0

>  <Active>  (425) 
0.0

>  <bits>  (425) 
<rdkit.DataStructs.cDataStructs.ExplicitBitVect object at 0x00000193F33E7990>

>  <Group>  (425) 
G2

$$$$

     RDKit          2D

 28 31  0  0  0  0  0  0  0  0999 V2000
   -3.0000   -2.5981    0.0000 C   0  0  0  0  0  0  0  0  0  0  0  0
   -1.5000   -2.5981    0.0000 N   0  0  0  0  0  0  0  0  0  0  0  0
   -0.7500   -3.8971    0.0000 C   0  0  0  0  0  0  0  0  0  0  0  0
   -1.5000   -5.1962    0.0000 O   0  0  0  0  0  0  0  0  0  0  0  0
    0.7500   -3.8971    0.0000 C   0  0  0  0  0  0  0  0  0  0  0  0
    1.5000   -5.1962    0.0000 O   0  0  0  0  0  0  0  0  0  0  0  0
    3.0000   -5.1962    0.0000 C   0  0  0  0  0  0  0  0  0  0  0  0
    3.7500   -3.8971    0.0000 C   0  0  0  0  0  0  0  0  0  0  0  0
    3.0000   -2.5981    0.0000 Cl  0  0  0  0  0  0  0  0  0  0  0  0
    5.2500   -3.8971    0.0000 C   0  0  0  0  0  0  0  0  0  0  0  0
    6.0000   -5.1962    0.0000 C   0  0  0  0  0  0  0  0  0  0  0  0
    5.2500   -6.4952    0.0000 C   0  0  0  0  0  0  0  0  0  0  0  0
    3.7500   -6.4952    0.0000 C   0  0  0  0  0  0  0  0  0  0  0  0
    3.0000   -7.7942    0.0000 Cl  0  0  0  0  0  0  0  0  0  0  0  0
    1.5000   -2.5981    0.0000 C   0  0  0  0  0  0  0  0  0  0  0  0
    0.7500   -1.2990    0.0000 C   0  0  0  0  0  0  0  0  0  0  0  0
    1.5000    0.0000    0.0000 C   0  0  0  0  0  0  0  0  0  0  0  0
    0.7500    1.2990    0.0000 N   0  0  0  0  0  0  0  0  0  0  0  0
   -0.7500    1.2990    0.0000 C   0  0  0  0  0  0  0  0  0  0  0  0
   -1.5000    2.5981    0.0000 N   0  0  0  0  0  0  0  0  0  0  0  0
   -0.7500    3.8971    0.0000 C   0  0  0  0  0  0  0  0  0  0  0  0
    0.7500    3.8971    0.0000 C   0  0  0  0  0  0  0  0  0  0  0  0
    1.5000    5.1962    0.0000 C   0  0  0  0  0  0  0  0  0  0  0  0
    0.7500    6.4952    0.0000 O   0  0  0  0  0  0  0  0  0  0  0  0
   -0.7500    6.4952    0.0000 C   0  0  0  0  0  0  0  0  0  0  0  0
   -1.5000    5.1962    0.0000 C   0  0  0  0  0  0  0  0  0  0  0  0
   -1.5000    0.0000    0.0000 N   0  0  0  0  0  0  0  0  0  0  0  0
   -0.7500   -1.2990    0.0000 C   0  0  0  0  0  0  0  0  0  0  0  0
  1  2  1  0
  2  3  1  0
  3  4  2  0
  3  5  1  0
  5  6  1  0
  6  7  1  0
  7  8  2  0
  8  9  1  0
  8 10  1  0
 10 11  2  0
 11 12  1  0
 12 13  2  0
 13 14  1  0
  5 15  2  0
 15 16  1  0
 16 17  2  0
 17 18  1  0
 18 19  2  0
 19 20  1  0
 20 21  1  0
 21 22  1  0
 22 23  1  0
 23 24  1  0
 24 25  1  0
 25 26  1  0
 19 27  1  0
 27 28  2  0
 28  2  1  0
 13  7  1  0
 28 16  1  0
 26 21  1  0
M  END
>  <Compound_ID>  (426) 
CHEMBL3747351

>  <Molecule Name>  (426) 
nan

>  <Molecular Weight>  (426) 
421.28

>  <AlogP>  (426) 
4.02

>  <Smiles>  (426) 
Cn1c(=O)c(Oc2c(Cl)cccc2Cl)cc2cnc(NC3CCOCC3)nc21

>  <Standard Type>  (426) 
Inhibition

>  <Standard Relation>  (426) 
'='

>  <Standard Units>  (426) 
%

>  <Standard Value>  (426) 
8.0

>  <Assay ChEMBL ID>  (426) 
CHEMBL3750776

>  <Assay Description>  (426) 
Inhibition of SYK (unknown origin) at 10 uM

>  <BAO Format ID>  (426) 
BAO_0000357

>  <BAO Label>  (426) 
single protein format

>  <Assay Organism>  (426) 
Homo sapiens

>  <Target ChEMBL ID>  (426) 
CHEMBL2599

>  <Target Name>  (426) 
Tyrosine-protein kinase SYK

>  <Target Organism>  (426) 
Homo sapiens

>  <Target Type>  (426) 
SINGLE PROTEIN

>  <Document ChEMBL ID>  (426) 
CHEMBL3745672

>  <Source Description>  (426) 
Scientific Literature

>  <Document Journal>  (426) 
Bioorg Med Chem Lett

>  <Document Year>  (426) 
2016.0

>  <Active>  (426) 
0.0

>  <bits>  (426) 
<rdkit.DataStructs.cDataStructs.ExplicitBitVect object at 0x00000193F33E4270>

>  <Group>  (426) 
G2

$$$$

     RDKit          2D

 38 43  0  0  0  0  0  0  0  0999 V2000
   -0.7500  -11.6913    0.0000 C   0  0  0  0  0  0  0  0  0  0  0  0
   -1.5000  -10.3923    0.0000 O   0  0  0  0  0  0  0  0  0  0  0  0
   -3.0000  -10.3923    0.0000 C   0  0  0  0  0  0  0  0  0  0  0  0
   -3.7500  -11.6913    0.0000 C   0  0  0  0  0  0  0  0  0  0  0  0
   -5.2500  -11.6913    0.0000 C   0  0  0  0  0  0  0  0  0  0  0  0
   -6.0000  -12.9904    0.0000 N   0  0  0  0  0  0  0  0  0  0  0  0
   -7.5000  -12.9904    0.0000 C   0  0  0  0  0  0  0  0  0  0  0  0
   -8.2500  -14.2894    0.0000 C   0  0  0  0  0  0  0  0  0  0  0  0
   -7.5000  -15.5885    0.0000 N   0  0  0  0  0  0  0  0  0  0  0  0
   -8.2500  -16.8875    0.0000 C   0  0  0  0  0  0  0  0  0  0  0  0
   -9.7500  -16.8875    0.0000 C   0  0  0  0  0  0  0  0  0  0  0  0
   -7.5000  -18.1865    0.0000 C   0  0  0  0  0  0  0  0  0  0  0  0
   -6.0000  -15.5885    0.0000 C   0  0  0  0  0  0  0  0  0  0  0  0
   -5.2500  -14.2894    0.0000 C   0  0  0  0  0  0  0  0  0  0  0  0
   -6.0000  -10.3923    0.0000 C   0  0  0  0  0  0  0  0  0  0  0  0
   -5.2500   -9.0933    0.0000 C   0  0  0  0  0  0  0  0  0  0  0  0
   -3.7500   -9.0933    0.0000 C   0  0  0  0  0  0  0  0  0  0  0  0
   -3.0000   -7.7942    0.0000 N   0  0  0  0  0  0  0  0  0  0  0  0
   -3.7500   -6.4952    0.0000 C   0  0  0  0  0  0  0  0  0  0  0  0
   -3.0000   -5.1962    0.0000 N   0  0  0  0  0  0  0  0  0  0  0  0
   -3.7500   -3.8971    0.0000 C   0  0  0  0  0  0  0  0  0  0  0  0
   -3.0000   -2.5981    0.0000 N   0  0  0  0  0  0  0  0  0  0  0  0
   -1.5000   -2.5981    0.0000 C   0  0  0  0  0  0  0  0  0  0  0  0
   -0.7500   -3.8971    0.0000 C   0  0  0  0  0  0  0  0  0  0  0  0
    0.7500   -3.8971    0.0000 C   0  0  0  0  0  0  0  0  0  0  0  0
    1.5000   -2.5981    0.0000 C   0  0  0  0  0  0  0  0  0  0  0  0
    0.7500   -1.2990    0.0000 C   0  0  0  0  0  0  0  0  0  0  0  0
    1.5000    0.0000    0.0000 N   0  0  0  0  0  0  0  0  0  0  0  0
    0.7500    1.2990    0.0000 C   0  0  0  0  0  0  0  0  0  0  0  0
   -0.7500    1.2990    0.0000 C   0  0  0  0  0  0  0  0  0  0  0  0
   -1.5000    0.0000    0.0000 C   0  0  0  0  0  0  0  0  0  0  0  0
   -0.7500   -1.2990    0.0000 C   0  0  0  0  0  0  0  0  0  0  0  0
   -5.2500   -3.8971    0.0000 C   0  0  0  0  0  0  0  0  0  0  0  0
   -6.2537   -2.7824    0.0000 C   0  0  0  0  0  0  0  0  0  0  0  0
   -7.6240   -3.3925    0.0000 C   0  0  0  0  0  0  0  0  0  0  0  0
   -7.4672   -4.8843    0.0000 N   0  0  0  0  0  0  0  0  0  0  0  0
   -6.0000   -5.1962    0.0000 C   0  0  0  0  0  0  0  0  0  0  0  0
   -5.2500   -6.4952    0.0000 N   0  0  0  0  0  0  0  0  0  0  0  0
  1  2  1  0
  2  3  1  0
  3  4  2  0
  4  5  1  0
  5  6  1  0
  6  7  1  0
  7  8  1  0
  8  9  1  0
  9 10  1  0
 10 11  1  0
 10 12  1  0
  9 13  1  0
 13 14  1  0
  5 15  2  0
 15 16  1  0
 16 17  2  0
 17 18  1  0
 18 19  1  0
 19 20  2  0
 20 21  1  0
 21 22  1  0
 22 23  1  0
 23 24  2  0
 24 25  1  0
 25 26  2  0
 26 27  1  0
 27 28  2  0
 28 29  1  0
 29 30  2  0
 30 31  1  0
 31 32  2  0
 21 33  2  0
 33 34  1  0
 34 35  2  0
 35 36  1  0
 36 37  1  0
 37 38  2  0
 17  3  1  0
 38 19  1  0
 14  6  1  0
 32 23  1  0
 37 33  1  0
 32 27  1  0
M  END
>  <Compound_ID>  (427) 
CHEMBL458438

>  <Molecule Name>  (427) 
GSK-1511931A

>  <Molecular Weight>  (427) 
508.63

>  <AlogP>  (427) 
5.53

>  <Smiles>  (427) 
COc1cc(N2CCN(C(C)C)CC2)ccc1Nc1nc(Nc2cccc3ncccc23)c2cc[nH]c2n1

>  <Standard Type>  (427) 
Inhibition

>  <Standard Relation>  (427) 
'='

>  <Standard Units>  (427) 
%

>  <Standard Value>  (427) 
-0.52

>  <Assay ChEMBL ID>  (427) 
CHEMBL1962175

>  <Assay Description>  (427) 
GSK_PKIS: SYK mean inhibition at 1 uM [Nanosyn]

>  <BAO Format ID>  (427) 
BAO_0000357

>  <BAO Label>  (427) 
single protein format

>  <Assay Organism>  (427) 
None

>  <Target ChEMBL ID>  (427) 
CHEMBL2599

>  <Target Name>  (427) 
Tyrosine-protein kinase SYK

>  <Target Organism>  (427) 
Homo sapiens

>  <Target Type>  (427) 
SINGLE PROTEIN

>  <Document ChEMBL ID>  (427) 
CHEMBL1961873

>  <Source Description>  (427) 
GSK Published Kinase Inhibitor Set

>  <Document Journal>  (427) 
nan

>  <Document Year>  (427) 
nan

>  <Active>  (427) 
0.0

>  <bits>  (427) 
<rdkit.DataStructs.cDataStructs.ExplicitBitVect object at 0x00000193F33E5CB0>

>  <Group>  (427) 
G2

$$$$

     RDKit          2D

 28 32  0  0  0  0  0  0  0  0999 V2000
    6.0000  -10.3923    0.0000 C   0  0  0  0  0  0  0  0  0  0  0  0
    5.2500   -9.0933    0.0000 N   0  0  0  0  0  0  0  0  0  0  0  0
    3.7500   -9.0933    0.0000 C   0  0  0  0  0  0  0  0  0  0  0  0
    3.0000   -7.7942    0.0000 C   0  0  0  0  0  0  0  0  0  0  0  0
    3.7500   -6.4952    0.0000 N   0  0  0  0  0  0  0  0  0  0  0  0
    3.0000   -5.1962    0.0000 C   0  0  0  0  0  0  0  0  0  0  0  0
    3.7500   -3.8971    0.0000 C   0  0  0  0  0  0  0  0  0  0  0  0
    3.0000   -2.5981    0.0000 C   0  0  0  0  0  0  0  0  0  0  0  0
    1.5000   -2.5981    0.0000 C   0  0  0  0  0  0  0  0  0  0  0  0
    0.7500   -1.2990    0.0000 C   0  0  0  0  0  0  0  0  0  0  0  0
    1.5000    0.0000    0.0000 C   0  0  0  0  0  0  0  0  0  0  0  0
    0.7500    1.2990    0.0000 N   0  0  0  0  0  0  0  0  0  0  0  0
   -0.7500    1.2990    0.0000 C   0  0  0  0  0  0  0  0  0  0  0  0
   -1.7537    2.4138    0.0000 N   0  0  0  0  0  0  0  0  0  0  0  0
   -3.1240    1.8037    0.0000 C   0  0  0  0  0  0  0  0  0  0  0  0
   -4.4943    2.4138    0.0000 C   0  0  0  0  0  0  0  0  0  0  0  0
   -5.7079    1.5321    0.0000 N   0  0  0  0  0  0  0  0  0  0  0  0
   -5.5511    0.0403    0.0000 C   0  0  0  0  0  0  0  0  0  0  0  0
   -6.7646   -0.8414    0.0000 C   0  0  0  0  0  0  0  0  0  0  0  0
   -7.9781   -1.7231    0.0000 N   0  0  0  0  0  0  0  0  0  0  0  0
   -4.1807   -0.5698    0.0000 C   0  0  0  0  0  0  0  0  0  0  0  0
   -2.9672    0.3119    0.0000 C   0  0  0  0  0  0  0  0  0  0  0  0
   -1.5000    0.0000    0.0000 C   0  0  0  0  0  0  0  0  0  0  0  0
   -0.7500   -1.2990    0.0000 C   0  0  0  0  0  0  0  0  0  0  0  0
    0.7500   -3.8971    0.0000 C   0  0  0  0  0  0  0  0  0  0  0  0
    1.5000   -5.1962    0.0000 C   0  0  0  0  0  0  0  0  0  0  0  0
    5.2500   -6.4952    0.0000 C   0  0  0  0  0  0  0  0  0  0  0  0
    6.0000   -7.7942    0.0000 C   0  0  0  0  0  0  0  0  0  0  0  0
  1  2  1  0
  2  3  1  0
  3  4  1  0
  4  5  1  0
  5  6  1  0
  6  7  2  0
  7  8  1  0
  8  9  2  0
  9 10  1  0
 10 11  2  0
 11 12  1  0
 12 13  2  0
 13 14  1  0
 14 15  1  0
 15 16  2  0
 16 17  1  0
 17 18  2  0
 18 19  1  0
 19 20  3  0
 18 21  1  0
 21 22  2  0
 22 23  1  0
 23 24  2  0
  9 25  1  0
 25 26  2  0
  5 27  1  0
 27 28  1  0
 28  2  1  0
 26  6  1  0
 24 10  1  0
 23 13  1  0
 22 15  1  0
M  END
>  <Compound_ID>  (428) 
CHEMBL3359895

>  <Molecule Name>  (428) 
nan

>  <Molecular Weight>  (428) 
368.44

>  <AlogP>  (428) 
3.40

>  <Smiles>  (428) 
CN1CCN(c2ccc(-c3cnc4[nH]c5cnc(C#N)cc5c4c3)cc2)CC1

>  <Standard Type>  (428) 
Inhibition

>  <Standard Relation>  (428) 
'='

>  <Standard Units>  (428) 
%

>  <Standard Value>  (428) 
19.0

>  <Assay ChEMBL ID>  (428) 
CHEMBL3384385

>  <Assay Description>  (428) 
Inhibition of SYK (unknown origin) at 0.1 uM

>  <BAO Format ID>  (428) 
BAO_0000357

>  <BAO Label>  (428) 
single protein format

>  <Assay Organism>  (428) 
Homo sapiens

>  <Target ChEMBL ID>  (428) 
CHEMBL2599

>  <Target Name>  (428) 
Tyrosine-protein kinase SYK

>  <Target Organism>  (428) 
Homo sapiens

>  <Target Type>  (428) 
SINGLE PROTEIN

>  <Document ChEMBL ID>  (428) 
CHEMBL3352495

>  <Source Description>  (428) 
Scientific Literature

>  <Document Journal>  (428) 
Bioorg Med Chem Lett

>  <Document Year>  (428) 
2014.0

>  <Active>  (428) 
0.0

>  <bits>  (428) 
<rdkit.DataStructs.cDataStructs.ExplicitBitVect object at 0x00000193F33E5A80>

>  <Group>  (428) 
G2

$$$$

     RDKit          2D

 32 35  0  0  0  0  0  0  0  0999 V2000
  -10.0849   -6.9740    0.0000 N   0  0  0  0  0  0  0  0  0  0  0  0
   -8.6583   -6.5105    0.0000 S   0  0  0  0  0  0  0  0  0  0  0  0
   -9.1218   -5.0839    0.0000 O   0  0  0  0  0  0  0  0  0  0  0  0
   -8.1948   -7.9371    0.0000 O   0  0  0  0  0  0  0  0  0  0  0  0
   -7.2317   -6.0469    0.0000 C   0  0  0  0  0  0  0  0  0  0  0  0
   -6.9199   -4.5797    0.0000 C   0  0  0  0  0  0  0  0  0  0  0  0
   -5.4933   -4.1162    0.0000 C   0  0  0  0  0  0  0  0  0  0  0  0
   -4.3786   -5.1199    0.0000 C   0  0  0  0  0  0  0  0  0  0  0  0
   -2.9520   -4.6564    0.0000 N   0  0  0  0  0  0  0  0  0  0  0  0
   -2.6401   -3.1891    0.0000 N   0  0  0  0  0  0  0  0  0  0  0  0
   -1.2135   -2.7256    0.0000 C   0  0  0  0  0  0  0  0  0  0  0  0
   -0.0000   -3.6073    0.0000 C   0  0  0  0  0  0  0  0  0  0  0  0
    0.0000   -5.1073    0.0000 O   0  0  0  0  0  0  0  0  0  0  0  0
    1.2135   -2.7256    0.0000 N   0  0  0  0  0  0  0  0  0  0  0  0
    0.7500   -1.2990    0.0000 C   0  0  0  0  0  0  0  0  0  0  0  0
    1.5000    0.0000    0.0000 C   0  0  0  0  0  0  0  0  0  0  0  0
    0.7500    1.2990    0.0000 C   0  0  0  0  0  0  0  0  0  0  0  0
   -0.7500    1.2990    0.0000 C   0  0  0  0  0  0  0  0  0  0  0  0
   -1.5000    2.5981    0.0000 C   0  0  0  0  0  0  0  0  0  0  0  0
   -3.0000    2.5981    0.0000 O   0  0  0  0  0  0  0  0  0  0  0  0
   -0.7500    3.8971    0.0000 N   0  0  0  0  0  0  0  0  0  0  0  0
   -1.5000    5.1962    0.0000 C   0  0  0  0  0  0  0  0  0  0  0  0
   -0.7500    6.4952    0.0000 C   0  0  0  0  0  0  0  0  0  0  0  0
   -1.5000    7.7942    0.0000 C   0  0  0  0  0  0  0  0  0  0  0  0
   -2.9918    7.9510    0.0000 C   0  0  0  0  0  0  0  0  0  0  0  0
   -3.3037    9.4182    0.0000 N   0  0  0  0  0  0  0  0  0  0  0  0
   -2.0046   10.1682    0.0000 C   0  0  0  0  0  0  0  0  0  0  0  0
   -0.8899    9.1645    0.0000 N   0  0  0  0  0  0  0  0  0  0  0  0
   -1.5000    0.0000    0.0000 C   0  0  0  0  0  0  0  0  0  0  0  0
   -0.7500   -1.2990    0.0000 C   0  0  0  0  0  0  0  0  0  0  0  0
   -4.6904   -6.5871    0.0000 C   0  0  0  0  0  0  0  0  0  0  0  0
   -6.1170   -7.0506    0.0000 C   0  0  0  0  0  0  0  0  0  0  0  0
  1  2  1  0
  2  3  2  0
  2  4  2  0
  2  5  1  0
  5  6  2  0
  6  7  1  0
  7  8  2  0
  8  9  1  0
  9 10  1  0
 10 11  2  0
 11 12  1  0
 12 13  2  0
 12 14  1  0
 14 15  1  0
 15 16  2  0
 16 17  1  0
 17 18  2  0
 18 19  1  0
 19 20  2  0
 19 21  1  0
 21 22  1  0
 22 23  1  0
 23 24  1  0
 24 25  2  0
 25 26  1  0
 26 27  1  0
 27 28  2  0
 18 29  1  0
 29 30  2  0
  8 31  1  0
 31 32  2  0
 32  5  1  0
 30 11  1  0
 30 15  1  0
 28 24  1  0
M  END
>  <Compound_ID>  (429) 
CHEMBL272028

>  <Molecule Name>  (429) 
GW300660X

>  <Molecular Weight>  (429) 
453.48

>  <AlogP>  (429) 
0.80

>  <Smiles>  (429) 
NS(=O)(=O)c1ccc(N/N=C2\C(=O)Nc3ccc(C(=O)NCCc4c[nH]cn4)cc32)cc1

>  <Standard Type>  (429) 
Inhibition

>  <Standard Relation>  (429) 
'='

>  <Standard Units>  (429) 
%

>  <Standard Value>  (429) 
-0.45

>  <Assay ChEMBL ID>  (429) 
CHEMBL1962175

>  <Assay Description>  (429) 
GSK_PKIS: SYK mean inhibition at 1 uM [Nanosyn]

>  <BAO Format ID>  (429) 
BAO_0000357

>  <BAO Label>  (429) 
single protein format

>  <Assay Organism>  (429) 
None

>  <Target ChEMBL ID>  (429) 
CHEMBL2599

>  <Target Name>  (429) 
Tyrosine-protein kinase SYK

>  <Target Organism>  (429) 
Homo sapiens

>  <Target Type>  (429) 
SINGLE PROTEIN

>  <Document ChEMBL ID>  (429) 
CHEMBL1961873

>  <Source Description>  (429) 
GSK Published Kinase Inhibitor Set

>  <Document Journal>  (429) 
nan

>  <Document Year>  (429) 
nan

>  <Active>  (429) 
0.0

>  <bits>  (429) 
<rdkit.DataStructs.cDataStructs.ExplicitBitVect object at 0x00000193F33E4F20>

>  <Group>  (429) 
G2

$$$$

     RDKit          2D

 36 40  0  0  0  0  0  0  0  0999 V2000
   -3.7500   -6.4952    0.0000 C   0  0  0  0  0  0  0  0  0  0  0  0
   -3.0000   -5.1962    0.0000 O   0  0  0  0  0  0  0  0  0  0  0  0
   -1.5000   -5.1962    0.0000 C   0  0  0  0  0  0  0  0  0  0  0  0
   -0.7500   -3.8971    0.0000 C   0  0  0  0  0  0  0  0  0  0  0  0
    0.7500   -3.8971    0.0000 C   0  0  0  0  0  0  0  0  0  0  0  0
    1.5000   -2.5981    0.0000 N   0  0  0  0  0  0  0  0  0  0  0  0
    0.7500   -1.2990    0.0000 C   0  0  0  0  0  0  0  0  0  0  0  0
    1.5000    0.0000    0.0000 N   0  0  0  0  0  0  0  0  0  0  0  0
    0.7500    1.2990    0.0000 C   0  0  0  0  0  0  0  0  0  0  0  0
   -0.7500    1.2990    0.0000 C   0  0  0  0  0  0  0  0  0  0  0  0
   -1.7537    2.4138    0.0000 C   0  0  0  0  0  0  0  0  0  0  0  0
   -1.4418    3.8810    0.0000 C   0  0  0  0  0  0  0  0  0  0  0  0
   -3.1240    1.8037    0.0000 N   0  0  0  0  0  0  0  0  0  0  0  0
   -2.9672    0.3119    0.0000 C   0  0  0  0  0  0  0  0  0  0  0  0
   -4.0819   -0.6918    0.0000 C   0  0  0  0  0  0  0  0  0  0  0  0
   -5.5085   -0.2283    0.0000 C   0  0  0  0  0  0  0  0  0  0  0  0
   -6.6232   -1.2320    0.0000 C   0  0  0  0  0  0  0  0  0  0  0  0
   -6.3114   -2.6992    0.0000 C   0  0  0  0  0  0  0  0  0  0  0  0
   -4.8848   -3.1627    0.0000 C   0  0  0  0  0  0  0  0  0  0  0  0
   -4.5729   -4.6300    0.0000 O   0  0  0  0  0  0  0  0  0  0  0  0
   -5.6876   -5.6337    0.0000 C   0  0  0  0  0  0  0  0  0  0  0  0
   -7.1142   -5.1701    0.0000 C   0  0  0  0  0  0  0  0  0  0  0  0
   -8.2289   -6.1738    0.0000 C   0  0  0  0  0  0  0  0  0  0  0  0
   -7.9171   -7.6411    0.0000 C   0  0  0  0  0  0  0  0  0  0  0  0
   -6.4905   -8.1046    0.0000 C   0  0  0  0  0  0  0  0  0  0  0  0
   -5.3758   -7.1009    0.0000 C   0  0  0  0  0  0  0  0  0  0  0  0
   -3.7701   -2.1590    0.0000 C   0  0  0  0  0  0  0  0  0  0  0  0
   -1.5000    0.0000    0.0000 N   0  0  0  0  0  0  0  0  0  0  0  0
   -0.7500   -1.2990    0.0000 N   0  0  0  0  0  0  0  0  0  0  0  0
    1.5000   -5.1962    0.0000 C   0  0  0  0  0  0  0  0  0  0  0  0
    0.7500   -6.4952    0.0000 C   0  0  0  0  0  0  0  0  0  0  0  0
    1.5000   -7.7942    0.0000 O   0  0  0  0  0  0  0  0  0  0  0  0
    0.7500   -9.0933    0.0000 C   0  0  0  0  0  0  0  0  0  0  0  0
   -0.7500   -6.4952    0.0000 C   0  0  0  0  0  0  0  0  0  0  0  0
   -1.5000   -7.7942    0.0000 O   0  0  0  0  0  0  0  0  0  0  0  0
   -3.0000   -7.7942    0.0000 C   0  0  0  0  0  0  0  0  0  0  0  0
  1  2  1  0
  2  3  1  0
  3  4  2  0
  4  5  1  0
  5  6  1  0
  6  7  1  0
  7  8  1  0
  8  9  2  0
  9 10  1  0
 10 11  2  0
 11 12  1  0
 11 13  1  0
 13 14  2  0
 14 15  1  0
 15 16  2  0
 16 17  1  0
 17 18  2  0
 18 19  1  0
 19 20  1  0
 20 21  1  0
 21 22  2  0
 22 23  1  0
 23 24  2  0
 24 25  1  0
 25 26  2  0
 19 27  2  0
 14 28  1  0
 28 29  1  0
  5 30  2  0
 30 31  1  0
 31 32  1  0
 32 33  1  0
 31 34  2  0
 34 35  1  0
 35 36  1  0
 34  3  1  0
 29  7  2  0
 28 10  1  0
 27 15  1  0
 26 21  1  0
M  END
>  <Compound_ID>  (430) 
CHEMBL519881

>  <Molecule Name>  (430) 
GW861893X

>  <Molecular Weight>  (430) 
483.53

>  <AlogP>  (430) 
5.66

>  <Smiles>  (430) 
COc1cc(Nc2ncc3c(C)nc(-c4cccc(Oc5ccccc5)c4)n3n2)cc(OC)c1OC

>  <Standard Type>  (430) 
Inhibition

>  <Standard Relation>  (430) 
'='

>  <Standard Units>  (430) 
%

>  <Standard Value>  (430) 
0.13

>  <Assay ChEMBL ID>  (430) 
CHEMBL1962175

>  <Assay Description>  (430) 
GSK_PKIS: SYK mean inhibition at 1 uM [Nanosyn]

>  <BAO Format ID>  (430) 
BAO_0000357

>  <BAO Label>  (430) 
single protein format

>  <Assay Organism>  (430) 
None

>  <Target ChEMBL ID>  (430) 
CHEMBL2599

>  <Target Name>  (430) 
Tyrosine-protein kinase SYK

>  <Target Organism>  (430) 
Homo sapiens

>  <Target Type>  (430) 
SINGLE PROTEIN

>  <Document ChEMBL ID>  (430) 
CHEMBL1961873

>  <Source Description>  (430) 
GSK Published Kinase Inhibitor Set

>  <Document Journal>  (430) 
nan

>  <Document Year>  (430) 
nan

>  <Active>  (430) 
0.0

>  <bits>  (430) 
<rdkit.DataStructs.cDataStructs.ExplicitBitVect object at 0x00000193F33E5930>

>  <Group>  (430) 
G2

$$$$

     RDKit          2D

 27 30  0  0  0  0  0  0  0  0999 V2000
    3.0000    0.0000    0.0000 C   0  0  0  0  0  0  0  0  0  0  0  0
    1.5000    0.0000    0.0000 C   0  0  0  0  0  0  0  0  0  0  0  0
    0.7500   -1.2990    0.0000 C   0  0  0  0  0  0  0  0  0  0  0  0
   -0.7500   -1.2990    0.0000 C   0  0  0  0  0  0  0  0  0  0  0  0
   -1.5000    0.0000    0.0000 C   0  0  0  0  0  0  0  0  0  0  0  0
   -3.0000    0.0000    0.0000 N   0  0  0  0  0  0  0  0  0  0  0  0
   -3.7500    1.2990    0.0000 C   0  0  0  0  0  0  0  0  0  0  0  0
   -3.0000    2.5981    0.0000 O   0  0  0  0  0  0  0  0  0  0  0  0
   -5.2500    1.2990    0.0000 C   0  0  0  0  0  0  0  0  0  0  0  0
   -6.0000    2.5981    0.0000 C   0  0  0  0  0  0  0  0  0  0  0  0
   -7.2990    3.3481    0.0000 C   0  0  0  0  0  0  0  0  0  0  0  0
   -6.0000    4.0981    0.0000 C   0  0  0  0  0  0  0  0  0  0  0  0
   -0.7500    1.2990    0.0000 C   0  0  0  0  0  0  0  0  0  0  0  0
    0.7500    1.2990    0.0000 C   0  0  0  0  0  0  0  0  0  0  0  0
    1.5000    2.5981    0.0000 C   0  0  0  0  0  0  0  0  0  0  0  0
    3.0000    2.5981    0.0000 C   0  0  0  0  0  0  0  0  0  0  0  0
    3.7500    3.8971    0.0000 C   0  0  0  0  0  0  0  0  0  0  0  0
    3.0000    5.1962    0.0000 C   0  0  0  0  0  0  0  0  0  0  0  0
    3.7500    6.4952    0.0000 C   0  0  0  0  0  0  0  0  0  0  0  0
    3.0000    7.7942    0.0000 O   0  0  0  0  0  0  0  0  0  0  0  0
    5.2500    6.4952    0.0000 N   0  0  0  0  0  0  0  0  0  0  0  0
    6.0000    7.7942    0.0000 C   0  0  0  0  0  0  0  0  0  0  0  0
    7.5000    7.7942    0.0000 C   0  0  0  0  0  0  0  0  0  0  0  0
    8.7990    8.5442    0.0000 C   0  0  0  0  0  0  0  0  0  0  0  0
    8.7990    7.0442    0.0000 C   0  0  0  0  0  0  0  0  0  0  0  0
    1.5000    5.1962    0.0000 C   0  0  0  0  0  0  0  0  0  0  0  0
    0.7500    3.8971    0.0000 C   0  0  0  0  0  0  0  0  0  0  0  0
  1  2  1  0
  2  3  2  0
  3  4  1  0
  4  5  2  0
  5  6  1  0
  6  7  1  0
  7  8  2  0
  7  9  1  0
  9 10  1  0
 10 11  1  0
 11 12  1  0
  5 13  1  0
 13 14  2  0
 14 15  1  0
 15 16  2  0
 16 17  1  0
 17 18  2  0
 18 19  1  0
 19 20  2  0
 19 21  1  0
 21 22  1  0
 22 23  1  0
 23 24  1  0
 24 25  1  0
 18 26  1  0
 26 27  2  0
 14  2  1  0
 27 15  1  0
 12 10  1  0
 25 23  1  0
M  END
>  <Compound_ID>  (431) 
CHEMBL516908

>  <Molecule Name>  (431) 
GW796920X

>  <Molecular Weight>  (431) 
362.47

>  <AlogP>  (431) 
4.54

>  <Smiles>  (431) 
Cc1ccc(NC(=O)CC2CC2)cc1-c1ccc(C(=O)NCC2CC2)cc1

>  <Standard Type>  (431) 
Inhibition

>  <Standard Relation>  (431) 
'='

>  <Standard Units>  (431) 
%

>  <Standard Value>  (431) 
-2.32

>  <Assay ChEMBL ID>  (431) 
CHEMBL1962174

>  <Assay Description>  (431) 
GSK_PKIS: SYK mean inhibition at 0.1 uM [Nanosyn]

>  <BAO Format ID>  (431) 
BAO_0000357

>  <BAO Label>  (431) 
single protein format

>  <Assay Organism>  (431) 
None

>  <Target ChEMBL ID>  (431) 
CHEMBL2599

>  <Target Name>  (431) 
Tyrosine-protein kinase SYK

>  <Target Organism>  (431) 
Homo sapiens

>  <Target Type>  (431) 
SINGLE PROTEIN

>  <Document ChEMBL ID>  (431) 
CHEMBL1961873

>  <Source Description>  (431) 
GSK Published Kinase Inhibitor Set

>  <Document Journal>  (431) 
nan

>  <Document Year>  (431) 
nan

>  <Active>  (431) 
0.0

>  <bits>  (431) 
<rdkit.DataStructs.cDataStructs.ExplicitBitVect object at 0x00000193F33E6B20>

>  <Group>  (431) 
G2

$$$$

     RDKit          2D

 30 34  0  0  0  0  0  0  0  0999 V2000
    3.7500   -1.2990    0.0000 C   0  0  0  0  0  0  0  0  0  0  0  0
    3.0000    0.0000    0.0000 N   0  0  0  0  0  0  0  0  0  0  0  0
    3.7500    1.2990    0.0000 C   0  0  0  0  0  0  0  0  0  0  0  0
    1.5000    0.0000    0.0000 C   0  0  0  0  0  0  0  0  0  0  0  0
    0.7500   -1.2990    0.0000 C   0  0  0  0  0  0  0  0  0  0  0  0
   -0.7500   -1.2990    0.0000 C   0  0  0  0  0  0  0  0  0  0  0  0
   -1.5000   -2.5981    0.0000 C   0  0  0  0  0  0  0  0  0  0  0  0
   -0.7500   -3.8971    0.0000 N   0  0  0  0  0  0  0  0  0  0  0  0
   -1.5000   -5.1962    0.0000 C   0  0  0  0  0  0  0  0  0  0  0  0
   -3.0000   -5.1962    0.0000 C   0  0  0  0  0  0  0  0  0  0  0  0
   -3.7500   -6.4952    0.0000 C   0  0  0  0  0  0  0  0  0  0  0  0
   -3.0000   -7.7942    0.0000 C   0  0  0  0  0  0  0  0  0  0  0  0
   -3.4635   -9.2208    0.0000 N   0  0  0  0  0  0  0  0  0  0  0  0
   -2.2500  -10.1025    0.0000 C   0  0  0  0  0  0  0  0  0  0  0  0
   -2.2500  -11.6025    0.0000 C   0  0  0  0  0  0  0  0  0  0  0  0
   -3.5490  -12.3525    0.0000 C   0  0  0  0  0  0  0  0  0  0  0  0
   -4.8481  -11.6025    0.0000 C   0  0  0  0  0  0  0  0  0  0  0  0
   -6.1471  -12.3525    0.0000 C   0  0  0  0  0  0  0  0  0  0  0  0
   -6.1471  -13.8525    0.0000 C   0  0  0  0  0  0  0  0  0  0  0  0
   -4.8481  -14.6025    0.0000 C   0  0  0  0  0  0  0  0  0  0  0  0
   -3.5490  -13.8525    0.0000 C   0  0  0  0  0  0  0  0  0  0  0  0
   -1.0365   -9.2208    0.0000 N   0  0  0  0  0  0  0  0  0  0  0  0
   -1.5000   -7.7942    0.0000 C   0  0  0  0  0  0  0  0  0  0  0  0
   -0.7500   -6.4952    0.0000 C   0  0  0  0  0  0  0  0  0  0  0  0
   -3.0000   -2.5981    0.0000 N   0  0  0  0  0  0  0  0  0  0  0  0
   -3.7500   -1.2990    0.0000 C   0  0  0  0  0  0  0  0  0  0  0  0
   -3.0000    0.0000    0.0000 N   0  0  0  0  0  0  0  0  0  0  0  0
   -1.5000    0.0000    0.0000 C   0  0  0  0  0  0  0  0  0  0  0  0
   -0.7500    1.2990    0.0000 C   0  0  0  0  0  0  0  0  0  0  0  0
    0.7500    1.2990    0.0000 N   0  0  0  0  0  0  0  0  0  0  0  0
  1  2  1  0
  2  3  1  0
  2  4  1  0
  4  5  2  0
  5  6  1  0
  6  7  2  0
  7  8  1  0
  8  9  1  0
  9 10  2  0
 10 11  1  0
 11 12  2  0
 12 13  1  0
 13 14  2  0
 14 15  1  0
 15 16  1  0
 16 17  2  0
 17 18  1  0
 18 19  2  0
 19 20  1  0
 20 21  2  0
 14 22  1  0
 22 23  1  0
 23 24  2  0
  7 25  1  0
 25 26  2  0
 26 27  1  0
 27 28  2  0
 28 29  1  0
 29 30  2  0
 30  4  1  0
 28  6  1  0
 24  9  1  0
 23 12  1  0
 21 16  1  0
M  END
>  <Compound_ID>  (432) 
CHEMBL531804

>  <Molecule Name>  (432) 
GW301888X

>  <Molecular Weight>  (432) 
395.47

>  <AlogP>  (432) 
4.30

>  <Smiles>  (432) 
CN(C)c1cc2c(Nc3ccc4nc(Cc5ccccc5)[nH]c4c3)ncnc2cn1

>  <Standard Type>  (432) 
Inhibition

>  <Standard Relation>  (432) 
'='

>  <Standard Units>  (432) 
%

>  <Standard Value>  (432) 
-5.04

>  <Assay ChEMBL ID>  (432) 
CHEMBL1962174

>  <Assay Description>  (432) 
GSK_PKIS: SYK mean inhibition at 0.1 uM [Nanosyn]

>  <BAO Format ID>  (432) 
BAO_0000357

>  <BAO Label>  (432) 
single protein format

>  <Assay Organism>  (432) 
None

>  <Target ChEMBL ID>  (432) 
CHEMBL2599

>  <Target Name>  (432) 
Tyrosine-protein kinase SYK

>  <Target Organism>  (432) 
Homo sapiens

>  <Target Type>  (432) 
SINGLE PROTEIN

>  <Document ChEMBL ID>  (432) 
CHEMBL1961873

>  <Source Description>  (432) 
GSK Published Kinase Inhibitor Set

>  <Document Journal>  (432) 
nan

>  <Document Year>  (432) 
nan

>  <Active>  (432) 
0.0

>  <bits>  (432) 
<rdkit.DataStructs.cDataStructs.ExplicitBitVect object at 0x00000193F33E5AF0>

>  <Group>  (432) 
G2

$$$$

     RDKit          2D

 31 33  0  0  0  0  0  0  0  0999 V2000
    6.7500    1.2990    0.0000 C   0  0  0  0  0  0  0  0  0  0  0  0
    6.0000   -0.0000    0.0000 C   0  0  0  0  0  0  0  0  0  0  0  0
    5.2500   -1.2990    0.0000 C   0  0  0  0  0  0  0  0  0  0  0  0
    6.0000   -2.5981    0.0000 C   0  0  0  0  0  0  0  0  0  0  0  0
    5.2500   -3.8971    0.0000 C   0  0  0  0  0  0  0  0  0  0  0  0
    3.7500   -3.8971    0.0000 C   0  0  0  0  0  0  0  0  0  0  0  0
    3.0000   -2.5981    0.0000 C   0  0  0  0  0  0  0  0  0  0  0  0
    1.5000   -2.5981    0.0000 N   0  0  0  0  0  0  0  0  0  0  0  0
    0.7500   -1.2990    0.0000 C   0  0  0  0  0  0  0  0  0  0  0  0
    1.5000    0.0000    0.0000 N   0  0  0  0  0  0  0  0  0  0  0  0
    0.7500    1.2990    0.0000 C   0  0  0  0  0  0  0  0  0  0  0  0
   -0.7500    1.2990    0.0000 N   0  0  0  0  0  0  0  0  0  0  0  0
   -1.5000    0.0000    0.0000 C   0  0  0  0  0  0  0  0  0  0  0  0
   -3.0000    0.0000    0.0000 C   0  0  0  0  0  0  0  0  0  0  0  0
   -3.7500   -1.2990    0.0000 C   0  0  0  0  0  0  0  0  0  0  0  0
   -3.0000   -2.5981    0.0000 C   0  0  0  0  0  0  0  0  0  0  0  0
   -3.7500   -3.8971    0.0000 O   0  0  0  0  0  0  0  0  0  0  0  0
   -5.2500   -3.8971    0.0000 C   0  0  0  0  0  0  0  0  0  0  0  0
   -6.0000   -5.1962    0.0000 C   0  0  0  0  0  0  0  0  0  0  0  0
   -7.5000   -5.1962    0.0000 C   0  0  0  0  0  0  0  0  0  0  0  0
   -8.2500   -6.4952    0.0000 C   0  0  0  0  0  0  0  0  0  0  0  0
   -9.7500   -6.4952    0.0000 N   0  0  0  0  0  0  0  0  0  0  0  0
  -10.5000   -7.7942    0.0000 C   0  0  0  0  0  0  0  0  0  0  0  0
  -12.0000   -7.7942    0.0000 C   0  0  0  0  0  0  0  0  0  0  0  0
  -12.7500   -9.0933    0.0000 S   0  0  0  0  0  0  0  0  0  0  0  0
  -13.5000  -10.3923    0.0000 C   0  0  0  0  0  0  0  0  0  0  0  0
  -11.4510   -9.8433    0.0000 O   0  0  0  0  0  0  0  0  0  0  0  0
  -14.0490   -8.3433    0.0000 O   0  0  0  0  0  0  0  0  0  0  0  0
   -1.5000   -2.5981    0.0000 C   0  0  0  0  0  0  0  0  0  0  0  0
   -0.7500   -1.2990    0.0000 C   0  0  0  0  0  0  0  0  0  0  0  0
    3.7500   -1.2990    0.0000 C   0  0  0  0  0  0  0  0  0  0  0  0
  1  2  3  0
  2  3  1  0
  3  4  2  0
  4  5  1  0
  5  6  2  0
  6  7  1  0
  7  8  1  0
  8  9  1  0
  9 10  2  0
 10 11  1  0
 11 12  2  0
 12 13  1  0
 13 14  2  0
 14 15  1  0
 15 16  2  0
 16 17  1  0
 17 18  1  0
 18 19  1  0
 19 20  1  0
 20 21  1  0
 21 22  1  0
 22 23  1  0
 23 24  1  0
 24 25  1  0
 25 26  1  0
 25 27  2  0
 25 28  2  0
 16 29  1  0
 29 30  2  0
  7 31  2  0
 31  3  1  0
 30  9  1  0
 30 13  1  0
M  END
>  <Compound_ID>  (433) 
CHEMBL517907

>  <Molecule Name>  (433) 
GW680191X

>  <Molecular Weight>  (433) 
438.55

>  <AlogP>  (433) 
3.15

>  <Smiles>  (433) 
C#Cc1cccc(Nc2ncnc3ccc(OCCCCNCCS(C)(=O)=O)cc23)c1

>  <Standard Type>  (433) 
Inhibition

>  <Standard Relation>  (433) 
'='

>  <Standard Units>  (433) 
%

>  <Standard Value>  (433) 
0.39

>  <Assay ChEMBL ID>  (433) 
CHEMBL1962175

>  <Assay Description>  (433) 
GSK_PKIS: SYK mean inhibition at 1 uM [Nanosyn]

>  <BAO Format ID>  (433) 
BAO_0000357

>  <BAO Label>  (433) 
single protein format

>  <Assay Organism>  (433) 
None

>  <Target ChEMBL ID>  (433) 
CHEMBL2599

>  <Target Name>  (433) 
Tyrosine-protein kinase SYK

>  <Target Organism>  (433) 
Homo sapiens

>  <Target Type>  (433) 
SINGLE PROTEIN

>  <Document ChEMBL ID>  (433) 
CHEMBL1961873

>  <Source Description>  (433) 
GSK Published Kinase Inhibitor Set

>  <Document Journal>  (433) 
nan

>  <Document Year>  (433) 
nan

>  <Active>  (433) 
0.0

>  <bits>  (433) 
<rdkit.DataStructs.cDataStructs.ExplicitBitVect object at 0x00000193F33E5E00>

>  <Group>  (433) 
G2

$$$$

     RDKit          2D

 20 23  0  0  0  0  0  0  0  0999 V2000
   -0.0000   -5.1073    0.0000 O   0  0  0  0  0  0  0  0  0  0  0  0
   -0.0000   -3.6073    0.0000 C   0  0  0  0  0  0  0  0  0  0  0  0
    1.2135   -2.7256    0.0000 N   0  0  0  0  0  0  0  0  0  0  0  0
    0.7500   -1.2990    0.0000 C   0  0  0  0  0  0  0  0  0  0  0  0
    1.5000    0.0000    0.0000 C   0  0  0  0  0  0  0  0  0  0  0  0
    0.7500    1.2990    0.0000 C   0  0  0  0  0  0  0  0  0  0  0  0
   -0.7500    1.2990    0.0000 C   0  0  0  0  0  0  0  0  0  0  0  0
   -1.5000    0.0000    0.0000 C   0  0  0  0  0  0  0  0  0  0  0  0
   -0.7500   -1.2990    0.0000 C   0  0  0  0  0  0  0  0  0  0  0  0
   -1.2135   -2.7256    0.0000 C   0  0  0  0  0  0  0  0  0  0  0  0
   -2.6401   -3.1891    0.0000 C   0  0  0  0  0  0  0  0  0  0  0  0
   -3.8536   -2.3075    0.0000 C   0  0  0  0  0  0  0  0  0  0  0  0
   -5.0672   -3.1891    0.0000 C   0  0  0  0  0  0  0  0  0  0  0  0
   -4.6036   -4.6157    0.0000 C   0  0  0  0  0  0  0  0  0  0  0  0
   -5.3536   -5.9148    0.0000 C   0  0  0  0  0  0  0  0  0  0  0  0
   -4.6036   -7.2138    0.0000 C   0  0  0  0  0  0  0  0  0  0  0  0
   -5.3536   -8.5128    0.0000 O   0  0  0  0  0  0  0  0  0  0  0  0
   -3.1036   -7.2138    0.0000 C   0  0  0  0  0  0  0  0  0  0  0  0
   -2.3536   -5.9148    0.0000 C   0  0  0  0  0  0  0  0  0  0  0  0
   -3.1036   -4.6157    0.0000 C   0  0  0  0  0  0  0  0  0  0  0  0
  1  2  2  0
  2  3  1  0
  3  4  1  0
  4  5  2  0
  5  6  1  0
  6  7  2  0
  7  8  1  0
  8  9  2  0
  9 10  1  0
 10 11  2  0
 11 12  1  0
 12 13  1  0
 13 14  1  0
 14 15  2  0
 15 16  1  0
 16 17  1  0
 16 18  2  0
 18 19  1  0
 19 20  2  0
 10  2  1  0
 20 11  1  0
  9  4  1  0
 20 14  1  0
M  END
>  <Compound_ID>  (434) 
CHEMBL175321

>  <Molecule Name>  (434) 
nan

>  <Molecular Weight>  (434) 
263.3

>  <AlogP>  (434) 
3.20

>  <Smiles>  (434) 
O=C1Nc2ccccc2/C1=C1\CCc2cc(O)ccc21

>  <Standard Type>  (434) 
Inhibition

>  <Standard Relation>  (434) 
'='

>  <Standard Units>  (434) 
%

>  <Standard Value>  (434) 
-8.61

>  <Assay ChEMBL ID>  (434) 
CHEMBL1962174

>  <Assay Description>  (434) 
GSK_PKIS: SYK mean inhibition at 0.1 uM [Nanosyn]

>  <BAO Format ID>  (434) 
BAO_0000357

>  <BAO Label>  (434) 
single protein format

>  <Assay Organism>  (434) 
None

>  <Target ChEMBL ID>  (434) 
CHEMBL2599

>  <Target Name>  (434) 
Tyrosine-protein kinase SYK

>  <Target Organism>  (434) 
Homo sapiens

>  <Target Type>  (434) 
SINGLE PROTEIN

>  <Document ChEMBL ID>  (434) 
CHEMBL1961873

>  <Source Description>  (434) 
GSK Published Kinase Inhibitor Set

>  <Document Journal>  (434) 
nan

>  <Document Year>  (434) 
nan

>  <Active>  (434) 
0.0

>  <bits>  (434) 
<rdkit.DataStructs.cDataStructs.ExplicitBitVect object at 0x00000193F33E46D0>

>  <Group>  (434) 
G2

$$$$

     RDKit          2D

 30 33  0  0  0  0  0  0  0  0999 V2000
    1.8478   -6.4639    0.0000 C   0  0  0  0  0  0  0  0  0  0  0  0
    2.0046   -4.9721    0.0000 C   0  0  0  0  0  0  0  0  0  0  0  0
    3.3037   -4.2221    0.0000 N   0  0  0  0  0  0  0  0  0  0  0  0
    2.9918   -2.7549    0.0000 N   0  0  0  0  0  0  0  0  0  0  0  0
    1.5000   -2.5981    0.0000 C   0  0  0  0  0  0  0  0  0  0  0  0
    0.7500   -1.2990    0.0000 C   0  0  0  0  0  0  0  0  0  0  0  0
    1.5000    0.0000    0.0000 C   0  0  0  0  0  0  0  0  0  0  0  0
    0.7500    1.2990    0.0000 C   0  0  0  0  0  0  0  0  0  0  0  0
   -0.7500    1.2990    0.0000 C   0  0  0  0  0  0  0  0  0  0  0  0
   -1.5000    2.5981    0.0000 C   0  0  0  0  0  0  0  0  0  0  0  0
   -1.5000    0.0000    0.0000 C   0  0  0  0  0  0  0  0  0  0  0  0
   -3.0000    0.0000    0.0000 C   0  0  0  0  0  0  0  0  0  0  0  0
   -3.7500    1.2990    0.0000 C   0  0  0  0  0  0  0  0  0  0  0  0
   -5.2500    1.2990    0.0000 C   0  0  0  0  0  0  0  0  0  0  0  0
   -6.0000    0.0000    0.0000 C   0  0  0  0  0  0  0  0  0  0  0  0
   -7.5000    0.0000    0.0000 C   0  0  0  0  0  0  0  0  0  0  0  0
   -8.2500   -1.2990    0.0000 O   0  0  0  0  0  0  0  0  0  0  0  0
   -8.2500    1.2990    0.0000 N   0  0  0  0  0  0  0  0  0  0  0  0
   -9.7500    1.2990    0.0000 C   0  0  0  0  0  0  0  0  0  0  0  0
  -10.5000    2.5981    0.0000 C   0  0  0  0  0  0  0  0  0  0  0  0
   -9.7500    3.8971    0.0000 C   0  0  0  0  0  0  0  0  0  0  0  0
  -10.5000    5.1962    0.0000 C   0  0  0  0  0  0  0  0  0  0  0  0
  -12.0000    5.1962    0.0000 C   0  0  0  0  0  0  0  0  0  0  0  0
  -12.7500    6.4952    0.0000 Cl  0  0  0  0  0  0  0  0  0  0  0  0
  -12.7500    3.8971    0.0000 C   0  0  0  0  0  0  0  0  0  0  0  0
  -12.0000    2.5981    0.0000 C   0  0  0  0  0  0  0  0  0  0  0  0
   -5.2500   -1.2990    0.0000 C   0  0  0  0  0  0  0  0  0  0  0  0
   -3.7500   -1.2990    0.0000 C   0  0  0  0  0  0  0  0  0  0  0  0
   -0.7500   -1.2990    0.0000 C   0  0  0  0  0  0  0  0  0  0  0  0
    0.8899   -3.9684    0.0000 O   0  0  0  0  0  0  0  0  0  0  0  0
  1  2  1  0
  2  3  2  0
  3  4  1  0
  4  5  2  0
  5  6  1  0
  6  7  2  0
  7  8  1  0
  8  9  2  0
  9 10  1  0
  9 11  1  0
 11 12  1  0
 12 13  2  0
 13 14  1  0
 14 15  2  0
 15 16  1  0
 16 17  2  0
 16 18  1  0
 18 19  1  0
 19 20  1  0
 20 21  2  0
 21 22  1  0
 22 23  2  0
 23 24  1  0
 23 25  1  0
 25 26  2  0
 15 27  1  0
 27 28  2  0
 11 29  2  0
  5 30  1  0
 30  2  1  0
 29  6  1  0
 28 12  1  0
 26 20  1  0
M  END
>  <Compound_ID>  (435) 
CHEMBL402108

>  <Molecule Name>  (435) 
GW708893X

>  <Molecular Weight>  (435) 
417.9

>  <AlogP>  (435) 
5.60

>  <Smiles>  (435) 
Cc1nnc(-c2ccc(C)c(-c3ccc(C(=O)NCc4ccc(Cl)cc4)cc3)c2)o1

>  <Standard Type>  (435) 
Inhibition

>  <Standard Relation>  (435) 
'='

>  <Standard Units>  (435) 
%

>  <Standard Value>  (435) 
-5.79

>  <Assay ChEMBL ID>  (435) 
CHEMBL1962174

>  <Assay Description>  (435) 
GSK_PKIS: SYK mean inhibition at 0.1 uM [Nanosyn]

>  <BAO Format ID>  (435) 
BAO_0000357

>  <BAO Label>  (435) 
single protein format

>  <Assay Organism>  (435) 
None

>  <Target ChEMBL ID>  (435) 
CHEMBL2599

>  <Target Name>  (435) 
Tyrosine-protein kinase SYK

>  <Target Organism>  (435) 
Homo sapiens

>  <Target Type>  (435) 
SINGLE PROTEIN

>  <Document ChEMBL ID>  (435) 
CHEMBL1961873

>  <Source Description>  (435) 
GSK Published Kinase Inhibitor Set

>  <Document Journal>  (435) 
nan

>  <Document Year>  (435) 
nan

>  <Active>  (435) 
0.0

>  <bits>  (435) 
<rdkit.DataStructs.cDataStructs.ExplicitBitVect object at 0x00000193F33E59A0>

>  <Group>  (435) 
G2

$$$$

     RDKit          2D

 21 24  0  0  0  0  0  0  0  0999 V2000
   -2.6401   -3.1891    0.0000 C   0  0  0  0  0  0  0  0  0  0  0  0
   -1.2135   -2.7256    0.0000 N   0  0  0  0  0  0  0  0  0  0  0  0
   -0.0000   -3.6073    0.0000 C   0  0  0  0  0  0  0  0  0  0  0  0
    1.2135   -2.7256    0.0000 C   0  0  0  0  0  0  0  0  0  0  0  0
    2.6401   -3.1891    0.0000 C   0  0  0  0  0  0  0  0  0  0  0  0
    2.9520   -4.6564    0.0000 C   0  0  0  0  0  0  0  0  0  0  0  0
    1.9483   -5.7711    0.0000 C   0  0  0  0  0  0  0  0  0  0  0  0
    0.4565   -5.6143    0.0000 O   0  0  0  0  0  0  0  0  0  0  0  0
    2.6983   -7.0701    0.0000 N   0  0  0  0  0  0  0  0  0  0  0  0
    4.1655   -6.7583    0.0000 C   0  0  0  0  0  0  0  0  0  0  0  0
    5.3790   -7.6399    0.0000 C   0  0  0  0  0  0  0  0  0  0  0  0
    6.7493   -7.0298    0.0000 C   0  0  0  0  0  0  0  0  0  0  0  0
    6.9061   -5.5380    0.0000 C   0  0  0  0  0  0  0  0  0  0  0  0
    5.6926   -4.6564    0.0000 N   0  0  0  0  0  0  0  0  0  0  0  0
    4.3223   -5.2665    0.0000 C   0  0  0  0  0  0  0  0  0  0  0  0
    0.7500   -1.2990    0.0000 C   0  0  0  0  0  0  0  0  0  0  0  0
    1.5000    0.0000    0.0000 C   0  0  0  0  0  0  0  0  0  0  0  0
    0.7500    1.2990    0.0000 C   0  0  0  0  0  0  0  0  0  0  0  0
   -0.7500    1.2990    0.0000 C   0  0  0  0  0  0  0  0  0  0  0  0
   -1.5000    0.0000    0.0000 C   0  0  0  0  0  0  0  0  0  0  0  0
   -0.7500   -1.2990    0.0000 C   0  0  0  0  0  0  0  0  0  0  0  0
  1  2  1  0
  2  3  1  0
  3  4  2  0
  4  5  1  0
  5  6  2  3
  6  7  1  0
  7  8  2  0
  7  9  1  0
  9 10  1  0
 10 11  2  0
 11 12  1  0
 12 13  2  0
 13 14  1  0
 14 15  2  0
  4 16  1  0
 16 17  2  0
 17 18  1  0
 18 19  2  0
 19 20  1  0
 20 21  2  0
 21  2  1  0
 15  6  1  0
 21 16  1  0
 15 10  1  0
M  END
>  <Compound_ID>  (436) 
CHEMBL1516890

>  <Molecule Name>  (436) 
GW441756X

>  <Molecular Weight>  (436) 
275.31

>  <AlogP>  (436) 
3.07

>  <Smiles>  (436) 
Cn1cc(C=C2C(=O)Nc3cccnc32)c2ccccc21

>  <Standard Type>  (436) 
Inhibition

>  <Standard Relation>  (436) 
'='

>  <Standard Units>  (436) 
%

>  <Standard Value>  (436) 
3.56

>  <Assay ChEMBL ID>  (436) 
CHEMBL1962174

>  <Assay Description>  (436) 
GSK_PKIS: SYK mean inhibition at 0.1 uM [Nanosyn]

>  <BAO Format ID>  (436) 
BAO_0000357

>  <BAO Label>  (436) 
single protein format

>  <Assay Organism>  (436) 
None

>  <Target ChEMBL ID>  (436) 
CHEMBL2599

>  <Target Name>  (436) 
Tyrosine-protein kinase SYK

>  <Target Organism>  (436) 
Homo sapiens

>  <Target Type>  (436) 
SINGLE PROTEIN

>  <Document ChEMBL ID>  (436) 
CHEMBL1961873

>  <Source Description>  (436) 
GSK Published Kinase Inhibitor Set

>  <Document Journal>  (436) 
nan

>  <Document Year>  (436) 
nan

>  <Active>  (436) 
0.0

>  <bits>  (436) 
<rdkit.DataStructs.cDataStructs.ExplicitBitVect object at 0x00000193F33E5D20>

>  <Group>  (436) 
G2

$$$$

     RDKit          2D

 29 32  0  0  0  0  0  0  0  0999 V2000
   -7.0526  -11.4523    0.0000 C   0  0  0  0  0  0  0  0  0  0  0  0
   -5.6260  -10.9888    0.0000 C   0  0  0  0  0  0  0  0  0  0  0  0
   -5.3142   -9.5216    0.0000 N   0  0  0  0  0  0  0  0  0  0  0  0
   -6.4289   -8.5179    0.0000 C   0  0  0  0  0  0  0  0  0  0  0  0
   -6.1170   -7.0506    0.0000 C   0  0  0  0  0  0  0  0  0  0  0  0
   -4.6904   -6.5871    0.0000 C   0  0  0  0  0  0  0  0  0  0  0  0
   -4.3786   -5.1199    0.0000 C   0  0  0  0  0  0  0  0  0  0  0  0
   -2.9520   -4.6564    0.0000 C   0  0  0  0  0  0  0  0  0  0  0  0
   -1.8373   -5.6601    0.0000 O   0  0  0  0  0  0  0  0  0  0  0  0
   -2.6401   -3.1891    0.0000 N   0  0  0  0  0  0  0  0  0  0  0  0
   -1.2135   -2.7256    0.0000 C   0  0  0  0  0  0  0  0  0  0  0  0
   -0.0000   -3.6073    0.0000 N   0  0  0  0  0  0  0  0  0  0  0  0
    1.2135   -2.7256    0.0000 N   0  0  0  0  0  0  0  0  0  0  0  0
    0.7500   -1.2990    0.0000 C   0  0  0  0  0  0  0  0  0  0  0  0
    1.5000    0.0000    0.0000 N   0  0  0  0  0  0  0  0  0  0  0  0
    0.7500    1.2990    0.0000 N   0  0  0  0  0  0  0  0  0  0  0  0
   -0.7500    1.2990    0.0000 C   0  0  0  0  0  0  0  0  0  0  0  0
   -1.5000    2.5981    0.0000 C   0  0  0  0  0  0  0  0  0  0  0  0
   -0.7500    3.8971    0.0000 C   0  0  0  0  0  0  0  0  0  0  0  0
   -1.5000    5.1962    0.0000 C   0  0  0  0  0  0  0  0  0  0  0  0
   -3.0000    5.1962    0.0000 C   0  0  0  0  0  0  0  0  0  0  0  0
   -3.7500    3.8971    0.0000 C   0  0  0  0  0  0  0  0  0  0  0  0
   -5.2500    3.8971    0.0000 F   0  0  0  0  0  0  0  0  0  0  0  0
   -3.0000    2.5981    0.0000 C   0  0  0  0  0  0  0  0  0  0  0  0
   -3.7500    1.2990    0.0000 F   0  0  0  0  0  0  0  0  0  0  0  0
   -1.5000    0.0000    0.0000 C   0  0  0  0  0  0  0  0  0  0  0  0
   -0.7500   -1.2990    0.0000 C   0  0  0  0  0  0  0  0  0  0  0  0
   -3.5757   -7.5908    0.0000 C   0  0  0  0  0  0  0  0  0  0  0  0
   -3.8876   -9.0580    0.0000 C   0  0  0  0  0  0  0  0  0  0  0  0
  1  2  1  0
  2  3  1  0
  3  4  1  0
  4  5  1  0
  5  6  1  0
  6  7  1  0
  7  8  1  0
  8  9  2  0
  8 10  1  0
 10 11  1  0
 11 12  2  0
 12 13  1  0
 13 14  1  0
 14 15  2  0
 15 16  1  0
 16 17  2  0
 17 18  1  0
 18 19  2  0
 19 20  1  0
 20 21  2  0
 21 22  1  0
 22 23  1  0
 22 24  2  0
 24 25  1  0
 17 26  1  0
 26 27  2  0
  6 28  1  0
 28 29  1  0
 29  3  1  0
 27 11  1  0
 27 14  1  0
 24 18  1  0
M  END
>  <Compound_ID>  (437) 
CHEMBL2062289

>  <Molecule Name>  (437) 
nan

>  <Molecular Weight>  (437) 
550.52

>  <AlogP>  (437) 
3.36

>  <Smiles>  (437) 
CCN1CCC(CC(=O)Nc2n[nH]c3nnc(-c4cccc(F)c4F)cc23)CC1

>  <Standard Type>  (437) 
Inhibition

>  <Standard Relation>  (437) 
'='

>  <Standard Units>  (437) 
%

>  <Standard Value>  (437) 
-2.27

>  <Assay ChEMBL ID>  (437) 
CHEMBL1962175

>  <Assay Description>  (437) 
GSK_PKIS: SYK mean inhibition at 1 uM [Nanosyn]

>  <BAO Format ID>  (437) 
BAO_0000357

>  <BAO Label>  (437) 
single protein format

>  <Assay Organism>  (437) 
None

>  <Target ChEMBL ID>  (437) 
CHEMBL2599

>  <Target Name>  (437) 
Tyrosine-protein kinase SYK

>  <Target Organism>  (437) 
Homo sapiens

>  <Target Type>  (437) 
SINGLE PROTEIN

>  <Document ChEMBL ID>  (437) 
CHEMBL1961873

>  <Source Description>  (437) 
GSK Published Kinase Inhibitor Set

>  <Document Journal>  (437) 
nan

>  <Document Year>  (437) 
nan

>  <Active>  (437) 
0.0

>  <bits>  (437) 
<rdkit.DataStructs.cDataStructs.ExplicitBitVect object at 0x00000193F33E6AB0>

>  <Group>  (437) 
G2

$$$$

     RDKit          2D

 26 29  0  0  0  0  0  0  0  0999 V2000
   -6.9771   -5.6725    0.0000 N   0  0  0  0  0  0  0  0  0  0  0  0
   -5.4853   -5.8293    0.0000 C   0  0  0  0  0  0  0  0  0  0  0  0
   -4.8752   -7.1996    0.0000 O   0  0  0  0  0  0  0  0  0  0  0  0
   -4.6036   -4.6157    0.0000 C   0  0  0  0  0  0  0  0  0  0  0  0
   -3.1036   -4.6157    0.0000 S   0  0  0  0  0  0  0  0  0  0  0  0
   -2.6401   -3.1891    0.0000 C   0  0  0  0  0  0  0  0  0  0  0  0
   -1.2135   -2.7256    0.0000 N   0  0  0  0  0  0  0  0  0  0  0  0
   -0.0000   -3.6073    0.0000 C   0  0  0  0  0  0  0  0  0  0  0  0
    1.2135   -2.7256    0.0000 N   0  0  0  0  0  0  0  0  0  0  0  0
    0.7500   -1.2990    0.0000 C   0  0  0  0  0  0  0  0  0  0  0  0
    1.5000    0.0000    0.0000 C   0  0  0  0  0  0  0  0  0  0  0  0
    0.7500    1.2990    0.0000 C   0  0  0  0  0  0  0  0  0  0  0  0
   -0.7500    1.2990    0.0000 C   0  0  0  0  0  0  0  0  0  0  0  0
   -1.5000    0.0000    0.0000 C   0  0  0  0  0  0  0  0  0  0  0  0
   -0.7500   -1.2990    0.0000 C   0  0  0  0  0  0  0  0  0  0  0  0
   -3.8536   -2.3075    0.0000 C   0  0  0  0  0  0  0  0  0  0  0  0
   -5.0672   -3.1891    0.0000 C   0  0  0  0  0  0  0  0  0  0  0  0
   -6.4937   -2.7256    0.0000 O   0  0  0  0  0  0  0  0  0  0  0  0
   -6.8056   -1.2584    0.0000 C   0  0  0  0  0  0  0  0  0  0  0  0
   -8.2322   -0.7949    0.0000 C   0  0  0  0  0  0  0  0  0  0  0  0
   -8.5441    0.6723    0.0000 C   0  0  0  0  0  0  0  0  0  0  0  0
   -9.9707    1.1359    0.0000 C   0  0  0  0  0  0  0  0  0  0  0  0
  -11.0854    0.1322    0.0000 C   0  0  0  0  0  0  0  0  0  0  0  0
  -10.7735   -1.3350    0.0000 C   0  0  0  0  0  0  0  0  0  0  0  0
   -9.3469   -1.7986    0.0000 C   0  0  0  0  0  0  0  0  0  0  0  0
   -9.0350   -3.2658    0.0000 Br  0  0  0  0  0  0  0  0  0  0  0  0
  1  2  1  0
  2  3  2  0
  2  4  1  0
  4  5  1  0
  5  6  1  0
  6  7  1  0
  7  8  1  0
  8  9  2  0
  9 10  1  0
 10 11  2  0
 11 12  1  0
 12 13  2  0
 13 14  1  0
 14 15  2  0
  6 16  2  0
 16 17  1  0
 17 18  1  0
 18 19  1  0
 19 20  1  0
 20 21  2  0
 21 22  1  0
 22 23  2  0
 23 24  1  0
 24 25  2  0
 25 26  1  0
 17  4  2  0
 25 20  1  0
 15  7  1  0
 15 10  1  0
M  END
>  <Compound_ID>  (438) 
CHEMBL518953

>  <Molecule Name>  (438) 
GSK-1023156A

>  <Molecular Weight>  (438) 
428.31

>  <AlogP>  (438) 
4.53

>  <Smiles>  (438) 
NC(=O)c1sc(-n2cnc3ccccc32)cc1OCc1ccccc1Br

>  <Standard Type>  (438) 
Inhibition

>  <Standard Relation>  (438) 
'='

>  <Standard Units>  (438) 
%

>  <Standard Value>  (438) 
-0.37

>  <Assay ChEMBL ID>  (438) 
CHEMBL1962175

>  <Assay Description>  (438) 
GSK_PKIS: SYK mean inhibition at 1 uM [Nanosyn]

>  <BAO Format ID>  (438) 
BAO_0000357

>  <BAO Label>  (438) 
single protein format

>  <Assay Organism>  (438) 
None

>  <Target ChEMBL ID>  (438) 
CHEMBL2599

>  <Target Name>  (438) 
Tyrosine-protein kinase SYK

>  <Target Organism>  (438) 
Homo sapiens

>  <Target Type>  (438) 
SINGLE PROTEIN

>  <Document ChEMBL ID>  (438) 
CHEMBL1961873

>  <Source Description>  (438) 
GSK Published Kinase Inhibitor Set

>  <Document Journal>  (438) 
nan

>  <Document Year>  (438) 
nan

>  <Active>  (438) 
0.0

>  <bits>  (438) 
<rdkit.DataStructs.cDataStructs.ExplicitBitVect object at 0x00000193F33E40B0>

>  <Group>  (438) 
G2

$$$$

     RDKit          2D

 22 25  0  0  0  0  0  0  0  0999 V2000
   -4.6883    2.2939    0.0000 C   0  0  0  0  0  0  0  0  0  0  0  0
   -4.3764    3.7611    0.0000 C   0  0  0  0  0  0  0  0  0  0  0  0
   -5.4912    4.7648    0.0000 C   0  0  0  0  0  0  0  0  0  0  0  0
   -5.1793    6.2320    0.0000 C   0  0  0  0  0  0  0  0  0  0  0  0
   -3.7527    6.6955    0.0000 C   0  0  0  0  0  0  0  0  0  0  0  0
   -3.4408    8.1628    0.0000 C   0  0  0  0  0  0  0  0  0  0  0  0
   -4.5556    9.1664    0.0000 O   0  0  0  0  0  0  0  0  0  0  0  0
   -2.0143    8.6263    0.0000 N   0  0  0  0  0  0  0  0  0  0  0  0
   -1.7024   10.0935    0.0000 C   0  0  0  0  0  0  0  0  0  0  0  0
   -2.1659   11.5201    0.0000 C   0  0  0  0  0  0  0  0  0  0  0  0
   -0.6987   11.2082    0.0000 C   0  0  0  0  0  0  0  0  0  0  0  0
   -2.6380    5.6918    0.0000 C   0  0  0  0  0  0  0  0  0  0  0  0
   -2.9499    4.2246    0.0000 C   0  0  0  0  0  0  0  0  0  0  0  0
   -1.8351    3.2209    0.0000 C   0  0  0  0  0  0  0  0  0  0  0  0
   -0.4086    3.6844    0.0000 C   0  0  0  0  0  0  0  0  0  0  0  0
    0.7062    2.6807    0.0000 C   0  0  0  0  0  0  0  0  0  0  0  0
    0.3943    1.2135    0.0000 C   0  0  0  0  0  0  0  0  0  0  0  0
    1.2760    0.0000    0.0000 N   0  0  0  0  0  0  0  0  0  0  0  0
    0.3943   -1.2135    0.0000 N   0  0  0  0  0  0  0  0  0  0  0  0
   -1.0323   -0.7500    0.0000 C   0  0  0  0  0  0  0  0  0  0  0  0
   -1.0323    0.7500    0.0000 C   0  0  0  0  0  0  0  0  0  0  0  0
   -2.1470    1.7537    0.0000 C   0  0  0  0  0  0  0  0  0  0  0  0
  1  2  1  0
  2  3  2  0
  3  4  1  0
  4  5  2  0
  5  6  1  0
  6  7  2  0
  6  8  1  0
  8  9  1  0
  9 10  1  0
 10 11  1  0
  5 12  1  0
 12 13  2  0
 13 14  1  0
 14 15  2  0
 15 16  1  0
 16 17  2  0
 17 18  1  0
 18 19  1  0
 19 20  2  0
 20 21  1  0
 21 22  2  0
 13  2  1  0
 22 14  1  0
 11  9  1  0
 21 17  1  0
M  END
>  <Compound_ID>  (439) 
CHEMBL495902

>  <Molecule Name>  (439) 
GW820759X

>  <Molecular Weight>  (439) 
291.35

>  <AlogP>  (439) 
3.43

>  <Smiles>  (439) 
Cc1ccc(C(=O)NC2CC2)cc1-c1ccc2[nH]ncc2c1

>  <Standard Type>  (439) 
Inhibition

>  <Standard Relation>  (439) 
'='

>  <Standard Units>  (439) 
%

>  <Standard Value>  (439) 
-0.05

>  <Assay ChEMBL ID>  (439) 
CHEMBL1962175

>  <Assay Description>  (439) 
GSK_PKIS: SYK mean inhibition at 1 uM [Nanosyn]

>  <BAO Format ID>  (439) 
BAO_0000357

>  <BAO Label>  (439) 
single protein format

>  <Assay Organism>  (439) 
None

>  <Target ChEMBL ID>  (439) 
CHEMBL2599

>  <Target Name>  (439) 
Tyrosine-protein kinase SYK

>  <Target Organism>  (439) 
Homo sapiens

>  <Target Type>  (439) 
SINGLE PROTEIN

>  <Document ChEMBL ID>  (439) 
CHEMBL1961873

>  <Source Description>  (439) 
GSK Published Kinase Inhibitor Set

>  <Document Journal>  (439) 
nan

>  <Document Year>  (439) 
nan

>  <Active>  (439) 
0.0

>  <bits>  (439) 
<rdkit.DataStructs.cDataStructs.ExplicitBitVect object at 0x00000193F33E4200>

>  <Group>  (439) 
G2

$$$$

     RDKit          2D

 28 30  0  0  0  0  0  0  0  0999 V2000
    3.7500   -1.2990    0.0000 C   0  0  0  0  0  0  0  0  0  0  0  0
    3.0000    0.0000    0.0000 O   0  0  0  0  0  0  0  0  0  0  0  0
    1.5000    0.0000    0.0000 C   0  0  0  0  0  0  0  0  0  0  0  0
    0.7500   -1.2990    0.0000 C   0  0  0  0  0  0  0  0  0  0  0  0
    1.5000   -2.5981    0.0000 C   0  0  0  0  0  0  0  0  0  0  0  0
    0.7500   -3.8971    0.0000 N   0  0  0  0  0  0  0  0  0  0  0  0
    3.0000   -2.5981    0.0000 O   0  0  0  0  0  0  0  0  0  0  0  0
   -0.7500   -1.2990    0.0000 C   0  0  0  0  0  0  0  0  0  0  0  0
   -1.5000    0.0000    0.0000 C   0  0  0  0  0  0  0  0  0  0  0  0
   -3.0000    0.0000    0.0000 C   0  0  0  0  0  0  0  0  0  0  0  0
   -3.7500    1.2990    0.0000 C   0  0  0  0  0  0  0  0  0  0  0  0
   -5.2500    1.2990    0.0000 C   0  0  0  0  0  0  0  0  0  0  0  0
   -6.0000    0.0000    0.0000 C   0  0  0  0  0  0  0  0  0  0  0  0
   -7.5000    0.0000    0.0000 Cl  0  0  0  0  0  0  0  0  0  0  0  0
   -5.2500   -1.2990    0.0000 C   0  0  0  0  0  0  0  0  0  0  0  0
   -3.7500   -1.2990    0.0000 C   0  0  0  0  0  0  0  0  0  0  0  0
   -0.7500    1.2990    0.0000 C   0  0  0  0  0  0  0  0  0  0  0  0
    0.7500    1.2990    0.0000 C   0  0  0  0  0  0  0  0  0  0  0  0
    1.5000    2.5981    0.0000 C   0  0  0  0  0  0  0  0  0  0  0  0
    3.0000    2.5981    0.0000 C   0  0  0  0  0  0  0  0  0  0  0  0
    3.7500    3.8971    0.0000 C   0  0  0  0  0  0  0  0  0  0  0  0
    3.0000    5.1962    0.0000 C   0  0  0  0  0  0  0  0  0  0  0  0
    3.7500    6.4952    0.0000 S   0  0  0  0  0  0  0  0  0  0  0  0
    4.5000    7.7942    0.0000 N   0  0  0  0  0  0  0  0  0  0  0  0
    5.0490    5.7452    0.0000 O   0  0  0  0  0  0  0  0  0  0  0  0
    2.4510    7.2452    0.0000 O   0  0  0  0  0  0  0  0  0  0  0  0
    1.5000    5.1962    0.0000 C   0  0  0  0  0  0  0  0  0  0  0  0
    0.7500    3.8971    0.0000 C   0  0  0  0  0  0  0  0  0  0  0  0
  1  2  1  0
  2  3  1  0
  3  4  2  0
  4  5  1  0
  5  6  1  0
  5  7  2  0
  4  8  1  0
  8  9  2  0
  9 10  1  0
 10 11  2  0
 11 12  1  0
 12 13  2  0
 13 14  1  0
 13 15  1  0
 15 16  2  0
  9 17  1  0
 17 18  2  0
 18 19  1  0
 19 20  2  0
 20 21  1  0
 21 22  2  0
 22 23  1  0
 23 24  1  0
 23 25  2  0
 23 26  2  0
 22 27  1  0
 27 28  2  0
 18  3  1  0
 28 19  1  0
 16 10  1  0
M  END
>  <Compound_ID>  (440) 
CHEMBL268885

>  <Molecule Name>  (440) 
GSK-711701A

>  <Molecular Weight>  (440) 
416.89

>  <AlogP>  (440) 
3.43

>  <Smiles>  (440) 
COc1c(C(N)=O)cc(-c2ccc(Cl)cc2)cc1-c1ccc(S(N)(=O)=O)cc1

>  <Standard Type>  (440) 
Inhibition

>  <Standard Relation>  (440) 
'='

>  <Standard Units>  (440) 
%

>  <Standard Value>  (440) 
4.05

>  <Assay ChEMBL ID>  (440) 
CHEMBL1962175

>  <Assay Description>  (440) 
GSK_PKIS: SYK mean inhibition at 1 uM [Nanosyn]

>  <BAO Format ID>  (440) 
BAO_0000357

>  <BAO Label>  (440) 
single protein format

>  <Assay Organism>  (440) 
None

>  <Target ChEMBL ID>  (440) 
CHEMBL2599

>  <Target Name>  (440) 
Tyrosine-protein kinase SYK

>  <Target Organism>  (440) 
Homo sapiens

>  <Target Type>  (440) 
SINGLE PROTEIN

>  <Document ChEMBL ID>  (440) 
CHEMBL1961873

>  <Source Description>  (440) 
GSK Published Kinase Inhibitor Set

>  <Document Journal>  (440) 
nan

>  <Document Year>  (440) 
nan

>  <Active>  (440) 
0.0

>  <bits>  (440) 
<rdkit.DataStructs.cDataStructs.ExplicitBitVect object at 0x00000193F33E6CE0>

>  <Group>  (440) 
G2

$$$$

     RDKit          2D

 27 30  0  0  0  0  0  0  0  0999 V2000
  -10.0849   -6.9740    0.0000 N   0  0  0  0  0  0  0  0  0  0  0  0
   -8.6583   -6.5105    0.0000 S   0  0  0  0  0  0  0  0  0  0  0  0
   -9.1218   -5.0839    0.0000 O   0  0  0  0  0  0  0  0  0  0  0  0
   -8.1948   -7.9371    0.0000 O   0  0  0  0  0  0  0  0  0  0  0  0
   -7.2317   -6.0469    0.0000 C   0  0  0  0  0  0  0  0  0  0  0  0
   -6.9199   -4.5797    0.0000 C   0  0  0  0  0  0  0  0  0  0  0  0
   -5.4933   -4.1162    0.0000 C   0  0  0  0  0  0  0  0  0  0  0  0
   -4.3786   -5.1199    0.0000 C   0  0  0  0  0  0  0  0  0  0  0  0
   -2.9520   -4.6564    0.0000 N   0  0  0  0  0  0  0  0  0  0  0  0
   -2.6401   -3.1891    0.0000 N   0  0  0  0  0  0  0  0  0  0  0  0
   -1.2135   -2.7256    0.0000 C   0  0  0  0  0  0  0  0  0  0  0  0
   -0.0000   -3.6073    0.0000 C   0  0  0  0  0  0  0  0  0  0  0  0
    0.0000   -5.1073    0.0000 O   0  0  0  0  0  0  0  0  0  0  0  0
    1.2135   -2.7256    0.0000 N   0  0  0  0  0  0  0  0  0  0  0  0
    0.7500   -1.2990    0.0000 C   0  0  0  0  0  0  0  0  0  0  0  0
    1.5000    0.0000    0.0000 C   0  0  0  0  0  0  0  0  0  0  0  0
    0.7500    1.2990    0.0000 C   0  0  0  0  0  0  0  0  0  0  0  0
   -0.7500    1.2990    0.0000 C   0  0  0  0  0  0  0  0  0  0  0  0
   -1.5000    2.5981    0.0000 C   0  0  0  0  0  0  0  0  0  0  0  0
   -2.9918    2.7549    0.0000 C   0  0  0  0  0  0  0  0  0  0  0  0
   -3.3037    4.2221    0.0000 N   0  0  0  0  0  0  0  0  0  0  0  0
   -2.0046    4.9721    0.0000 C   0  0  0  0  0  0  0  0  0  0  0  0
   -0.8899    3.9684    0.0000 O   0  0  0  0  0  0  0  0  0  0  0  0
   -1.5000    0.0000    0.0000 C   0  0  0  0  0  0  0  0  0  0  0  0
   -0.7500   -1.2990    0.0000 C   0  0  0  0  0  0  0  0  0  0  0  0
   -4.6904   -6.5871    0.0000 C   0  0  0  0  0  0  0  0  0  0  0  0
   -6.1170   -7.0506    0.0000 C   0  0  0  0  0  0  0  0  0  0  0  0
  1  2  1  0
  2  3  2  0
  2  4  2  0
  2  5  1  0
  5  6  2  0
  6  7  1  0
  7  8  2  0
  8  9  1  0
  9 10  1  0
 10 11  2  0
 11 12  1  0
 12 13  2  0
 12 14  1  0
 14 15  1  0
 15 16  2  0
 16 17  1  0
 17 18  2  0
 18 19  1  0
 19 20  2  0
 20 21  1  0
 21 22  2  0
 22 23  1  0
 18 24  1  0
 24 25  2  0
  8 26  1  0
 26 27  2  0
 27  5  1  0
 25 11  1  0
 25 15  1  0
 23 19  1  0
M  END
>  <Compound_ID>  (441) 
CHEMBL269827

>  <Molecule Name>  (441) 
GW276655X

>  <Molecular Weight>  (441) 
383.39

>  <AlogP>  (441) 
1.76

>  <Smiles>  (441) 
NS(=O)(=O)c1ccc(N/N=C2\C(=O)Nc3ccc(-c4cnco4)cc32)cc1

>  <Standard Type>  (441) 
Inhibition

>  <Standard Relation>  (441) 
'='

>  <Standard Units>  (441) 
%

>  <Standard Value>  (441) 
0.72

>  <Assay ChEMBL ID>  (441) 
CHEMBL1962174

>  <Assay Description>  (441) 
GSK_PKIS: SYK mean inhibition at 0.1 uM [Nanosyn]

>  <BAO Format ID>  (441) 
BAO_0000357

>  <BAO Label>  (441) 
single protein format

>  <Assay Organism>  (441) 
None

>  <Target ChEMBL ID>  (441) 
CHEMBL2599

>  <Target Name>  (441) 
Tyrosine-protein kinase SYK

>  <Target Organism>  (441) 
Homo sapiens

>  <Target Type>  (441) 
SINGLE PROTEIN

>  <Document ChEMBL ID>  (441) 
CHEMBL1961873

>  <Source Description>  (441) 
GSK Published Kinase Inhibitor Set

>  <Document Journal>  (441) 
nan

>  <Document Year>  (441) 
nan

>  <Active>  (441) 
0.0

>  <bits>  (441) 
<rdkit.DataStructs.cDataStructs.ExplicitBitVect object at 0x00000193F33E7D10>

>  <Group>  (441) 
G2

$$$$

     RDKit          2D

 25 27  0  0  0  0  0  0  0  0999 V2000
    3.7500   -1.2990    0.0000 C   0  0  0  0  0  0  0  0  0  0  0  0
    3.0000    0.0000    0.0000 C   0  0  0  0  0  0  0  0  0  0  0  0
    3.7500    1.2990    0.0000 C   0  0  0  0  0  0  0  0  0  0  0  0
    1.5000    0.0000    0.0000 C   0  0  0  0  0  0  0  0  0  0  0  0
    0.7500   -1.2990    0.0000 C   0  0  0  0  0  0  0  0  0  0  0  0
   -0.7500   -1.2990    0.0000 C   0  0  0  0  0  0  0  0  0  0  0  0
   -1.5000    0.0000    0.0000 C   0  0  0  0  0  0  0  0  0  0  0  0
   -0.7500    1.2990    0.0000 C   0  0  0  0  0  0  0  0  0  0  0  0
    0.7500    1.2990    0.0000 C   0  0  0  0  0  0  0  0  0  0  0  0
   -1.7537    2.4138    0.0000 N   0  0  0  0  0  0  0  0  0  0  0  0
   -3.1240    1.8037    0.0000 C   0  0  0  0  0  0  0  0  0  0  0  0
   -4.4231    2.5537    0.0000 O   0  0  0  0  0  0  0  0  0  0  0  0
   -2.9672    0.3119    0.0000 C   0  0  0  0  0  0  0  0  0  0  0  0
   -4.0819   -0.6918    0.0000 N   0  0  0  0  0  0  0  0  0  0  0  0
   -3.7701   -2.1590    0.0000 N   0  0  0  0  0  0  0  0  0  0  0  0
   -4.8848   -3.1627    0.0000 C   0  0  0  0  0  0  0  0  0  0  0  0
   -6.3114   -2.6992    0.0000 C   0  0  0  0  0  0  0  0  0  0  0  0
   -7.4261   -3.7029    0.0000 C   0  0  0  0  0  0  0  0  0  0  0  0
   -7.1142   -5.1701    0.0000 C   0  0  0  0  0  0  0  0  0  0  0  0
   -8.2289   -6.1738    0.0000 S   0  0  0  0  0  0  0  0  0  0  0  0
   -9.3437   -7.1775    0.0000 N   0  0  0  0  0  0  0  0  0  0  0  0
   -9.2326   -5.0591    0.0000 O   0  0  0  0  0  0  0  0  0  0  0  0
   -7.2252   -7.2886    0.0000 O   0  0  0  0  0  0  0  0  0  0  0  0
   -5.6876   -5.6337    0.0000 C   0  0  0  0  0  0  0  0  0  0  0  0
   -4.5729   -4.6300    0.0000 C   0  0  0  0  0  0  0  0  0  0  0  0
  1  2  1  0
  2  3  1  0
  2  4  1  0
  4  5  2  0
  5  6  1  0
  6  7  2  0
  7  8  1  0
  8  9  2  0
  8 10  1  0
 10 11  1  0
 11 12  2  0
 11 13  1  0
 13 14  2  0
 14 15  1  0
 15 16  1  0
 16 17  2  0
 17 18  1  0
 18 19  2  0
 19 20  1  0
 20 21  1  0
 20 22  2  0
 20 23  2  0
 19 24  1  0
 24 25  2  0
  9  4  1  0
 25 16  1  0
 13  7  1  0
M  END
>  <Compound_ID>  (442) 
CHEMBL271594

>  <Molecule Name>  (442) 
GW300653X

>  <Molecular Weight>  (442) 
358.42

>  <AlogP>  (442) 
2.23

>  <Smiles>  (442) 
CC(C)c1ccc2c(c1)NC(=O)/C2=N/Nc1ccc(S(N)(=O)=O)cc1

>  <Standard Type>  (442) 
Inhibition

>  <Standard Relation>  (442) 
'='

>  <Standard Units>  (442) 
%

>  <Standard Value>  (442) 
1.53

>  <Assay ChEMBL ID>  (442) 
CHEMBL1962175

>  <Assay Description>  (442) 
GSK_PKIS: SYK mean inhibition at 1 uM [Nanosyn]

>  <BAO Format ID>  (442) 
BAO_0000357

>  <BAO Label>  (442) 
single protein format

>  <Assay Organism>  (442) 
None

>  <Target ChEMBL ID>  (442) 
CHEMBL2599

>  <Target Name>  (442) 
Tyrosine-protein kinase SYK

>  <Target Organism>  (442) 
Homo sapiens

>  <Target Type>  (442) 
SINGLE PROTEIN

>  <Document ChEMBL ID>  (442) 
CHEMBL1961873

>  <Source Description>  (442) 
GSK Published Kinase Inhibitor Set

>  <Document Journal>  (442) 
nan

>  <Document Year>  (442) 
nan

>  <Active>  (442) 
0.0

>  <bits>  (442) 
<rdkit.DataStructs.cDataStructs.ExplicitBitVect object at 0x00000193F33E6810>

>  <Group>  (442) 
G2

$$$$

     RDKit          2D

 40 45  0  0  0  0  0  0  0  0999 V2000
    5.3011  -10.7993    0.0000 O   0  0  0  0  0  1  0  0  0  0  0  0
    5.1443   -9.3075    0.0000 S   0  0  0  0  0  3  0  0  0  0  0  0
    3.7740   -8.6974    0.0000 C   0  0  0  0  0  0  0  0  0  0  0  0
    3.6172   -7.2057    0.0000 C   0  0  0  0  0  0  0  0  0  0  0  0
    4.8308   -6.3240    0.0000 N   0  0  0  0  0  0  0  0  0  0  0  0
    4.6740   -4.8322    0.0000 C   0  0  0  0  0  0  0  0  0  0  0  0
    3.3037   -4.2221    0.0000 C   0  0  0  0  0  0  0  0  0  0  0  0
    2.0046   -4.9721    0.0000 C   0  0  0  0  0  0  0  0  0  0  0  0
    0.8899   -3.9684    0.0000 C   0  0  0  0  0  0  0  0  0  0  0  0
    1.5000   -2.5981    0.0000 C   0  0  0  0  0  0  0  0  0  0  0  0
    0.7500   -1.2990    0.0000 C   0  0  0  0  0  0  0  0  0  0  0  0
    1.5000    0.0000    0.0000 C   0  0  0  0  0  0  0  0  0  0  0  0
    0.7500    1.2990    0.0000 C   0  0  0  0  0  0  0  0  0  0  0  0
   -0.7500    1.2990    0.0000 C   0  0  0  0  0  0  0  0  0  0  0  0
   -1.5000    2.5981    0.0000 N   0  0  0  0  0  0  0  0  0  0  0  0
   -3.0000    2.5981    0.0000 C   0  0  0  0  0  0  0  0  0  0  0  0
   -3.7500    1.2990    0.0000 N   0  0  0  0  0  0  0  0  0  0  0  0
   -3.0000    0.0000    0.0000 C   0  0  0  0  0  0  0  0  0  0  0  0
   -3.7500   -1.2990    0.0000 N   0  0  0  0  0  0  0  0  0  0  0  0
   -5.2500   -1.2990    0.0000 C   0  0  0  0  0  0  0  0  0  0  0  0
   -6.0000    0.0000    0.0000 C   0  0  0  0  0  0  0  0  0  0  0  0
   -7.5000    0.0000    0.0000 C   0  0  0  0  0  0  0  0  0  0  0  0
   -8.2500   -1.2990    0.0000 C   0  0  0  0  0  0  0  0  0  0  0  0
   -9.7500   -1.2990    0.0000 O   0  0  0  0  0  0  0  0  0  0  0  0
  -10.5000    0.0000    0.0000 C   0  0  0  0  0  0  0  0  0  0  0  0
  -12.0000    0.0000    0.0000 C   0  0  0  0  0  0  0  0  0  0  0  0
  -12.7500    1.2990    0.0000 C   0  0  0  0  0  0  0  0  0  0  0  0
  -14.2500    1.2990    0.0000 C   0  0  0  0  0  0  0  0  0  0  0  0
  -15.0000    0.0000    0.0000 C   0  0  0  0  0  0  0  0  0  0  0  0
  -14.2500   -1.2990    0.0000 C   0  0  0  0  0  0  0  0  0  0  0  0
  -15.0000   -2.5981    0.0000 F   0  0  0  0  0  0  0  0  0  0  0  0
  -12.7500   -1.2990    0.0000 C   0  0  0  0  0  0  0  0  0  0  0  0
   -7.5000   -2.5981    0.0000 C   0  0  0  0  0  0  0  0  0  0  0  0
   -8.2500   -3.8971    0.0000 Cl  0  0  0  0  0  0  0  0  0  0  0  0
   -6.0000   -2.5981    0.0000 C   0  0  0  0  0  0  0  0  0  0  0  0
   -1.5000    0.0000    0.0000 C   0  0  0  0  0  0  0  0  0  0  0  0
   -0.7500   -1.2990    0.0000 C   0  0  0  0  0  0  0  0  0  0  0  0
    2.9918   -2.7549    0.0000 O   0  0  0  0  0  0  0  0  0  0  0  0
    6.2011   -6.9341    0.0000 C   0  0  0  0  0  0  0  0  0  0  0  0
    6.3579   -8.4259    0.0000 C   0  0  0  0  0  0  0  0  0  0  0  0
  1  2  1  0
  2  3  1  0
  3  4  1  0
  4  5  1  0
  5  6  1  0
  6  7  1  0
  7  8  2  0
  8  9  1  0
  9 10  2  0
 10 11  1  0
 11 12  2  0
 12 13  1  0
 13 14  2  0
 14 15  1  0
 15 16  2  0
 16 17  1  0
 17 18  2  0
 18 19  1  0
 19 20  1  0
 20 21  2  0
 21 22  1  0
 22 23  2  0
 23 24  1  0
 24 25  1  0
 25 26  1  0
 26 27  2  0
 27 28  1  0
 28 29  2  0
 29 30  1  0
 30 31  1  0
 30 32  2  0
 23 33  1  0
 33 34  1  0
 33 35  2  0
 18 36  1  0
 36 37  2  0
 10 38  1  0
  5 39  1  0
 39 40  1  0
 40  2  1  0
 38  7  1  0
 37 11  1  0
 36 14  1  0
 35 20  1  0
 32 26  1  0
M  CHG  2   1  -1   2   1
M  END
>  <Compound_ID>  (443) 
CHEMBL1909390

>  <Molecule Name>  (443) 
GW576609A

>  <Molecular Weight>  (443) 
691.1

>  <AlogP>  (443) 
6.57

>  <Smiles>  (443) 
[O-][S+]1CCN(Cc2ccc(-c3ccc4ncnc(Nc5ccc(OCc6cccc(F)c6)c(Cl)c5)c4c3)o2)CC1

>  <Standard Type>  (443) 
Inhibition

>  <Standard Relation>  (443) 
'='

>  <Standard Units>  (443) 
%

>  <Standard Value>  (443) 
0.31

>  <Assay ChEMBL ID>  (443) 
CHEMBL1962175

>  <Assay Description>  (443) 
GSK_PKIS: SYK mean inhibition at 1 uM [Nanosyn]

>  <BAO Format ID>  (443) 
BAO_0000357

>  <BAO Label>  (443) 
single protein format

>  <Assay Organism>  (443) 
None

>  <Target ChEMBL ID>  (443) 
CHEMBL2599

>  <Target Name>  (443) 
Tyrosine-protein kinase SYK

>  <Target Organism>  (443) 
Homo sapiens

>  <Target Type>  (443) 
SINGLE PROTEIN

>  <Document ChEMBL ID>  (443) 
CHEMBL1961873

>  <Source Description>  (443) 
GSK Published Kinase Inhibitor Set

>  <Document Journal>  (443) 
nan

>  <Document Year>  (443) 
nan

>  <Active>  (443) 
0.0

>  <bits>  (443) 
<rdkit.DataStructs.cDataStructs.ExplicitBitVect object at 0x00000193F33E7ED0>

>  <Group>  (443) 
G2

$$$$

     RDKit          2D

 31 34  0  0  0  0  0  0  0  0999 V2000
    3.7500   -6.4952    0.0000 C   0  0  0  0  0  0  0  0  0  0  0  0
    3.0000   -5.1962    0.0000 O   0  0  0  0  0  0  0  0  0  0  0  0
    1.5000   -5.1962    0.0000 C   0  0  0  0  0  0  0  0  0  0  0  0
    0.7500   -3.8971    0.0000 C   0  0  0  0  0  0  0  0  0  0  0  0
   -0.7500   -3.8971    0.0000 O   0  0  0  0  0  0  0  0  0  0  0  0
    1.5000   -2.5981    0.0000 N   0  0  0  0  0  0  0  0  0  0  0  0
    0.7500   -1.2990    0.0000 C   0  0  0  0  0  0  0  0  0  0  0  0
    1.5000    0.0000    0.0000 C   0  0  0  0  0  0  0  0  0  0  0  0
    0.7500    1.2990    0.0000 C   0  0  0  0  0  0  0  0  0  0  0  0
   -0.7500    1.2990    0.0000 C   0  0  0  0  0  0  0  0  0  0  0  0
   -1.7537    2.4138    0.0000 N   0  0  0  0  0  0  0  0  0  0  0  0
   -3.1240    1.8037    0.0000 N   0  0  0  0  0  0  0  0  0  0  0  0
   -2.9672    0.3119    0.0000 C   0  0  0  0  0  0  0  0  0  0  0  0
   -4.0819   -0.6918    0.0000 C   0  0  0  0  0  0  0  0  0  0  0  0
   -5.5085   -0.2283    0.0000 C   0  0  0  0  0  0  0  0  0  0  0  0
   -6.6232   -1.2320    0.0000 C   0  0  0  0  0  0  0  0  0  0  0  0
   -6.3114   -2.6992    0.0000 C   0  0  0  0  0  0  0  0  0  0  0  0
   -4.8848   -3.1627    0.0000 C   0  0  0  0  0  0  0  0  0  0  0  0
   -4.5729   -4.6300    0.0000 S   0  0  0  0  0  0  0  0  0  0  0  0
   -4.2611   -6.0972    0.0000 N   0  0  0  0  0  0  0  0  0  0  0  0
   -6.0401   -4.9418    0.0000 O   0  0  0  0  0  0  0  0  0  0  0  0
   -3.1057   -4.3181    0.0000 O   0  0  0  0  0  0  0  0  0  0  0  0
   -3.7701   -2.1590    0.0000 C   0  0  0  0  0  0  0  0  0  0  0  0
   -1.5000    0.0000    0.0000 C   0  0  0  0  0  0  0  0  0  0  0  0
   -0.7500   -1.2990    0.0000 C   0  0  0  0  0  0  0  0  0  0  0  0
    0.7500   -6.4952    0.0000 C   0  0  0  0  0  0  0  0  0  0  0  0
   -0.7500   -6.4952    0.0000 C   0  0  0  0  0  0  0  0  0  0  0  0
   -1.5000   -7.7942    0.0000 C   0  0  0  0  0  0  0  0  0  0  0  0
   -0.7500   -9.0933    0.0000 C   0  0  0  0  0  0  0  0  0  0  0  0
    0.7500   -9.0933    0.0000 C   0  0  0  0  0  0  0  0  0  0  0  0
    1.5000   -7.7942    0.0000 C   0  0  0  0  0  0  0  0  0  0  0  0
  1  2  1  0
  2  3  1  0
  3  4  1  0
  4  5  2  0
  4  6  1  0
  6  7  1  0
  7  8  2  0
  8  9  1  0
  9 10  2  0
 10 11  1  0
 11 12  1  0
 12 13  2  0
 13 14  1  0
 14 15  2  0
 15 16  1  0
 16 17  2  0
 17 18  1  0
 18 19  1  0
 19 20  1  0
 19 21  2  0
 19 22  2  0
 18 23  2  0
 13 24  1  0
 24 25  2  0
  3 26  1  0
 26 27  2  0
 27 28  1  0
 28 29  2  0
 29 30  1  0
 30 31  2  0
 25  7  1  0
 31 26  1  0
 24 10  1  0
 23 14  1  0
M  END
>  <Compound_ID>  (444) 
CHEMBL3330401

>  <Molecule Name>  (444) 
nan

>  <Molecular Weight>  (444) 
436.49

>  <AlogP>  (444) 
3.20

>  <Smiles>  (444) 
COC(C(=O)Nc1ccc2[nH]nc(-c3cccc(S(N)(=O)=O)c3)c2c1)c1ccccc1

>  <Standard Type>  (444) 
Inhibition

>  <Standard Relation>  (444) 
'='

>  <Standard Units>  (444) 
%

>  <Standard Value>  (444) 
3.0

>  <Assay ChEMBL ID>  (444) 
CHEMBL3369118

>  <Assay Description>  (444) 
Inhibition of human Syk at 1 uM by radiometric Assay

>  <BAO Format ID>  (444) 
BAO_0000357

>  <BAO Label>  (444) 
single protein format

>  <Assay Organism>  (444) 
Homo sapiens

>  <Target ChEMBL ID>  (444) 
CHEMBL2599

>  <Target Name>  (444) 
Tyrosine-protein kinase SYK

>  <Target Organism>  (444) 
Homo sapiens

>  <Target Type>  (444) 
SINGLE PROTEIN

>  <Document ChEMBL ID>  (444) 
CHEMBL3352261

>  <Source Description>  (444) 
Scientific Literature

>  <Document Journal>  (444) 
Bioorg Med Chem

>  <Document Year>  (444) 
2014.0

>  <Active>  (444) 
0.0

>  <bits>  (444) 
<rdkit.DataStructs.cDataStructs.ExplicitBitVect object at 0x00000193F33E73E0>

>  <Group>  (444) 
G2

$$$$

     RDKit          2D

 27 29  0  0  0  0  0  0  0  0999 V2000
    4.5000   -2.5981    0.0000 C   0  0  0  0  0  0  0  0  0  0  0  0
    3.7500   -1.2990    0.0000 S   0  0  0  0  0  0  0  0  0  0  0  0
    2.4510   -2.0490    0.0000 O   0  0  0  0  0  0  0  0  0  0  0  0
    5.0490   -0.5490    0.0000 O   0  0  0  0  0  0  0  0  0  0  0  0
    3.0000    0.0000    0.0000 N   0  0  0  0  0  0  0  0  0  0  0  0
    1.5000    0.0000    0.0000 C   0  0  0  0  0  0  0  0  0  0  0  0
    0.7500   -1.2990    0.0000 C   0  0  0  0  0  0  0  0  0  0  0  0
   -0.7500   -1.2990    0.0000 C   0  0  0  0  0  0  0  0  0  0  0  0
   -1.5000    0.0000    0.0000 C   0  0  0  0  0  0  0  0  0  0  0  0
   -3.0000    0.0000    0.0000 C   0  0  0  0  0  0  0  0  0  0  0  0
   -3.7500    1.2990    0.0000 C   0  0  0  0  0  0  0  0  0  0  0  0
   -5.2500    1.2990    0.0000 C   0  0  0  0  0  0  0  0  0  0  0  0
   -6.0000    2.5981    0.0000 C   0  0  0  0  0  0  0  0  0  0  0  0
   -5.2500    3.8971    0.0000 C   0  0  0  0  0  0  0  0  0  0  0  0
   -6.0000    5.1962    0.0000 C   0  0  0  0  0  0  0  0  0  0  0  0
   -7.5000    5.1962    0.0000 C   0  0  0  0  0  0  0  0  0  0  0  0
   -8.2500    3.8971    0.0000 C   0  0  0  0  0  0  0  0  0  0  0  0
   -7.5000    2.5981    0.0000 C   0  0  0  0  0  0  0  0  0  0  0  0
   -6.0000    0.0000    0.0000 C   0  0  0  0  0  0  0  0  0  0  0  0
   -5.2500   -1.2990    0.0000 C   0  0  0  0  0  0  0  0  0  0  0  0
   -6.0000   -2.5981    0.0000 C   0  0  0  0  0  0  0  0  0  0  0  0
   -7.5000   -2.5981    0.0000 N   0  0  0  0  0  0  0  0  0  0  0  0
   -5.2500   -3.8971    0.0000 O   0  0  0  0  0  0  0  0  0  0  0  0
   -3.7500   -1.2990    0.0000 C   0  0  0  0  0  0  0  0  0  0  0  0
   -3.0000   -2.5981    0.0000 N   0  0  0  0  0  0  0  0  0  0  0  0
   -0.7500    1.2990    0.0000 C   0  0  0  0  0  0  0  0  0  0  0  0
    0.7500    1.2990    0.0000 C   0  0  0  0  0  0  0  0  0  0  0  0
  1  2  1  0
  2  3  2  0
  2  4  2  0
  2  5  1  0
  5  6  1  0
  6  7  2  0
  7  8  1  0
  8  9  2  0
  9 10  1  0
 10 11  2  0
 11 12  1  0
 12 13  1  0
 13 14  2  0
 14 15  1  0
 15 16  2  0
 16 17  1  0
 17 18  2  0
 12 19  2  0
 19 20  1  0
 20 21  1  0
 21 22  1  0
 21 23  2  0
 20 24  2  0
 24 25  1  0
  9 26  1  0
 26 27  2  0
 27  6  1  0
 24 10  1  0
 18 13  1  0
M  END
>  <Compound_ID>  (445) 
CHEMBL230597

>  <Molecule Name>  (445) 
GSK-586581A

>  <Molecular Weight>  (445) 
381.46

>  <AlogP>  (445) 
3.07

>  <Smiles>  (445) 
CS(=O)(=O)Nc1ccc(-c2cc(-c3ccccc3)cc(C(N)=O)c2N)cc1

>  <Standard Type>  (445) 
Inhibition

>  <Standard Relation>  (445) 
'='

>  <Standard Units>  (445) 
%

>  <Standard Value>  (445) 
0.38

>  <Assay ChEMBL ID>  (445) 
CHEMBL1962175

>  <Assay Description>  (445) 
GSK_PKIS: SYK mean inhibition at 1 uM [Nanosyn]

>  <BAO Format ID>  (445) 
BAO_0000357

>  <BAO Label>  (445) 
single protein format

>  <Assay Organism>  (445) 
None

>  <Target ChEMBL ID>  (445) 
CHEMBL2599

>  <Target Name>  (445) 
Tyrosine-protein kinase SYK

>  <Target Organism>  (445) 
Homo sapiens

>  <Target Type>  (445) 
SINGLE PROTEIN

>  <Document ChEMBL ID>  (445) 
CHEMBL1961873

>  <Source Description>  (445) 
GSK Published Kinase Inhibitor Set

>  <Document Journal>  (445) 
nan

>  <Document Year>  (445) 
nan

>  <Active>  (445) 
0.0

>  <bits>  (445) 
<rdkit.DataStructs.cDataStructs.ExplicitBitVect object at 0x00000193F33E5850>

>  <Group>  (445) 
G2

$$$$

     RDKit          2D

 23 25  0  0  0  0  0  0  0  0999 V2000
    3.0000    0.0000    0.0000 C   0  0  0  0  0  0  0  0  0  0  0  0
    1.5000    0.0000    0.0000 C   0  0  0  0  0  0  0  0  0  0  0  0
    0.7500   -1.2990    0.0000 C   0  0  0  0  0  0  0  0  0  0  0  0
   -0.7500   -1.2990    0.0000 C   0  0  0  0  0  0  0  0  0  0  0  0
   -1.5000    0.0000    0.0000 C   0  0  0  0  0  0  0  0  0  0  0  0
   -0.7500    1.2990    0.0000 C   0  0  0  0  0  0  0  0  0  0  0  0
    0.7500    1.2990    0.0000 C   0  0  0  0  0  0  0  0  0  0  0  0
   -1.7537    2.4138    0.0000 C   0  0  0  0  0  0  0  0  0  0  0  0
   -1.4418    3.8810    0.0000 N   0  0  0  0  0  0  0  0  0  0  0  0
   -2.5565    4.8847    0.0000 N   0  0  0  0  0  0  0  0  0  0  0  0
   -2.2447    6.3519    0.0000 C   0  0  0  0  0  0  0  0  0  0  0  0
   -0.8181    6.8154    0.0000 C   0  0  0  0  0  0  0  0  0  0  0  0
   -0.5062    8.2826    0.0000 C   0  0  0  0  0  0  0  0  0  0  0  0
   -1.6209    9.2863    0.0000 C   0  0  0  0  0  0  0  0  0  0  0  0
   -1.3091   10.7536    0.0000 S   0  0  0  0  0  0  0  0  0  0  0  0
   -0.9972   12.2208    0.0000 N   0  0  0  0  0  0  0  0  0  0  0  0
    0.1581   10.4417    0.0000 O   0  0  0  0  0  0  0  0  0  0  0  0
   -2.7763   11.0654    0.0000 O   0  0  0  0  0  0  0  0  0  0  0  0
   -3.0475    8.8228    0.0000 C   0  0  0  0  0  0  0  0  0  0  0  0
   -3.3594    7.3556    0.0000 C   0  0  0  0  0  0  0  0  0  0  0  0
   -3.1240    1.8037    0.0000 C   0  0  0  0  0  0  0  0  0  0  0  0
   -4.4231    2.5537    0.0000 O   0  0  0  0  0  0  0  0  0  0  0  0
   -2.9672    0.3119    0.0000 N   0  0  0  0  0  0  0  0  0  0  0  0
  1  2  1  0
  2  3  2  0
  3  4  1  0
  4  5  2  0
  5  6  1  0
  6  7  2  0
  6  8  1  0
  8  9  2  0
  9 10  1  0
 10 11  1  0
 11 12  2  0
 12 13  1  0
 13 14  2  0
 14 15  1  0
 15 16  1  0
 15 17  2  0
 15 18  2  0
 14 19  1  0
 19 20  2  0
  8 21  1  0
 21 22  2  0
 21 23  1  0
  7  2  1  0
 20 11  1  0
 23  5  1  0
M  END
>  <Compound_ID>  (446) 
CHEMBL271843

>  <Molecule Name>  (446) 
GW275944X

>  <Molecular Weight>  (446) 
330.37

>  <AlogP>  (446) 
1.41

>  <Smiles>  (446) 
Cc1ccc2c(c1)/C(=N/Nc1ccc(S(N)(=O)=O)cc1)C(=O)N2

>  <Standard Type>  (446) 
Inhibition

>  <Standard Relation>  (446) 
'='

>  <Standard Units>  (446) 
%

>  <Standard Value>  (446) 
2.17

>  <Assay ChEMBL ID>  (446) 
CHEMBL1962174

>  <Assay Description>  (446) 
GSK_PKIS: SYK mean inhibition at 0.1 uM [Nanosyn]

>  <BAO Format ID>  (446) 
BAO_0000357

>  <BAO Label>  (446) 
single protein format

>  <Assay Organism>  (446) 
None

>  <Target ChEMBL ID>  (446) 
CHEMBL2599

>  <Target Name>  (446) 
Tyrosine-protein kinase SYK

>  <Target Organism>  (446) 
Homo sapiens

>  <Target Type>  (446) 
SINGLE PROTEIN

>  <Document ChEMBL ID>  (446) 
CHEMBL1961873

>  <Source Description>  (446) 
GSK Published Kinase Inhibitor Set

>  <Document Journal>  (446) 
nan

>  <Document Year>  (446) 
nan

>  <Active>  (446) 
0.0

>  <bits>  (446) 
<rdkit.DataStructs.cDataStructs.ExplicitBitVect object at 0x00000193F33E4740>

>  <Group>  (446) 
G2

$$$$

     RDKit          2D

 29 31  0  0  0  0  0  0  0  0999 V2000
    7.5000   -2.5981    0.0000 C   0  0  0  0  0  0  0  0  0  0  0  0
    6.0000   -2.5981    0.0000 C   0  0  0  0  0  0  0  0  0  0  0  0
    5.2500   -3.8971    0.0000 C   0  0  0  0  0  0  0  0  0  0  0  0
    5.2500   -1.2990    0.0000 C   0  0  0  0  0  0  0  0  0  0  0  0
    3.7500   -1.2990    0.0000 O   0  0  0  0  0  0  0  0  0  0  0  0
    3.0000    0.0000    0.0000 C   0  0  0  0  0  0  0  0  0  0  0  0
    3.7500    1.2990    0.0000 O   0  0  0  0  0  0  0  0  0  0  0  0
    1.5000    0.0000    0.0000 C   0  0  0  0  0  0  0  0  0  0  0  0
    0.7500   -1.2990    0.0000 C   0  0  0  0  0  0  0  0  0  0  0  0
   -0.7500   -1.2990    0.0000 C   0  0  0  0  0  0  0  0  0  0  0  0
   -1.5000    0.0000    0.0000 C   0  0  0  0  0  0  0  0  0  0  0  0
   -0.7500    1.2990    0.0000 C   0  0  0  0  0  0  0  0  0  0  0  0
    0.7500    1.2990    0.0000 C   0  0  0  0  0  0  0  0  0  0  0  0
   -1.7537    2.4138    0.0000 C   0  0  0  0  0  0  0  0  0  0  0  0
   -1.4418    3.8810    0.0000 C   0  0  0  0  0  0  0  0  0  0  0  0
   -2.5565    4.8847    0.0000 N   0  0  0  0  0  0  0  0  0  0  0  0
   -2.2447    6.3519    0.0000 C   0  0  0  0  0  0  0  0  0  0  0  0
   -0.8181    6.8154    0.0000 C   0  0  0  0  0  0  0  0  0  0  0  0
   -0.5062    8.2826    0.0000 C   0  0  0  0  0  0  0  0  0  0  0  0
   -1.6209    9.2863    0.0000 C   0  0  0  0  0  0  0  0  0  0  0  0
   -1.3091   10.7536    0.0000 S   0  0  0  0  0  0  0  0  0  0  0  0
   -0.9972   12.2208    0.0000 N   0  0  0  0  0  0  0  0  0  0  0  0
    0.1581   10.4417    0.0000 O   0  0  0  0  0  0  0  0  0  0  0  0
   -2.7763   11.0654    0.0000 O   0  0  0  0  0  0  0  0  0  0  0  0
   -3.0475    8.8228    0.0000 C   0  0  0  0  0  0  0  0  0  0  0  0
   -3.3594    7.3556    0.0000 C   0  0  0  0  0  0  0  0  0  0  0  0
   -3.1240    1.8037    0.0000 C   0  0  0  0  0  0  0  0  0  0  0  0
   -4.4231    2.5537    0.0000 O   0  0  0  0  0  0  0  0  0  0  0  0
   -2.9672    0.3119    0.0000 N   0  0  0  0  0  0  0  0  0  0  0  0
  1  2  1  0
  2  3  1  0
  2  4  1  0
  4  5  1  0
  5  6  1  0
  6  7  2  0
  6  8  1  0
  8  9  2  0
  9 10  1  0
 10 11  2  0
 11 12  1  0
 12 13  2  0
 12 14  1  0
 14 15  2  0
 15 16  1  0
 16 17  1  0
 17 18  2  0
 18 19  1  0
 19 20  2  0
 20 21  1  0
 21 22  1  0
 21 23  2  0
 21 24  2  0
 20 25  1  0
 25 26  2  0
 14 27  1  0
 27 28  2  0
 27 29  1  0
 13  8  1  0
 26 17  1  0
 29 11  1  0
M  END
>  <Compound_ID>  (447) 
CHEMBL269883

>  <Molecule Name>  (447) 
GW416981X

>  <Molecular Weight>  (447) 
415.47

>  <AlogP>  (447) 
2.55

>  <Smiles>  (447) 
CC(C)COC(=O)c1ccc2c(c1)/C(=C/Nc1ccc(S(N)(=O)=O)cc1)C(=O)N2

>  <Standard Type>  (447) 
Inhibition

>  <Standard Relation>  (447) 
'='

>  <Standard Units>  (447) 
%

>  <Standard Value>  (447) 
4.14

>  <Assay ChEMBL ID>  (447) 
CHEMBL1962174

>  <Assay Description>  (447) 
GSK_PKIS: SYK mean inhibition at 0.1 uM [Nanosyn]

>  <BAO Format ID>  (447) 
BAO_0000357

>  <BAO Label>  (447) 
single protein format

>  <Assay Organism>  (447) 
None

>  <Target ChEMBL ID>  (447) 
CHEMBL2599

>  <Target Name>  (447) 
Tyrosine-protein kinase SYK

>  <Target Organism>  (447) 
Homo sapiens

>  <Target Type>  (447) 
SINGLE PROTEIN

>  <Document ChEMBL ID>  (447) 
CHEMBL1961873

>  <Source Description>  (447) 
GSK Published Kinase Inhibitor Set

>  <Document Journal>  (447) 
nan

>  <Document Year>  (447) 
nan

>  <Active>  (447) 
0.0

>  <bits>  (447) 
<rdkit.DataStructs.cDataStructs.ExplicitBitVect object at 0x00000193F33E4B30>

>  <Group>  (447) 
G2

$$$$

     RDKit          2D

 19 21  0  0  0  0  0  0  0  0999 V2000
    3.7500   -1.2990    0.0000 C   0  0  0  0  0  0  0  0  0  0  0  0
    3.0000    0.0000    0.0000 C   0  0  0  0  0  0  0  0  0  0  0  0
    1.5000    0.0000    0.0000 C   0  0  0  0  0  0  0  0  0  0  0  0
    0.7500   -1.2990    0.0000 N   0  0  0  0  0  0  0  0  0  0  0  0
   -0.7500   -1.2990    0.0000 C   0  0  0  0  0  0  0  0  0  0  0  0
   -1.5000    0.0000    0.0000 C   0  0  0  0  0  0  0  0  0  0  0  0
   -0.7500    1.2990    0.0000 C   0  0  0  0  0  0  0  0  0  0  0  0
    0.7500    1.2990    0.0000 C   0  0  0  0  0  0  0  0  0  0  0  0
    1.2135    2.7256    0.0000 N   0  0  0  0  0  0  0  0  0  0  0  0
    0.0000    3.6073    0.0000 C   0  0  0  0  0  0  0  0  0  0  0  0
    0.0000    5.1073    0.0000 C   0  0  0  0  0  0  0  0  0  0  0  0
   -1.2135    5.9890    0.0000 N   0  0  0  0  0  0  0  0  0  0  0  0
   -0.7500    7.4156    0.0000 O   0  0  0  0  0  0  0  0  0  0  0  0
    0.7500    7.4156    0.0000 N   0  0  0  0  0  0  0  0  0  0  0  0
    1.2135    5.9890    0.0000 C   0  0  0  0  0  0  0  0  0  0  0  0
    2.6401    5.5255    0.0000 N   0  0  0  0  0  0  0  0  0  0  0  0
   -1.2135    2.7256    0.0000 N   0  0  0  0  0  0  0  0  0  0  0  0
   -2.6401    3.1891    0.0000 C   0  0  0  0  0  0  0  0  0  0  0  0
   -3.7548    2.1855    0.0000 C   0  0  0  0  0  0  0  0  0  0  0  0
  1  2  1  0
  2  3  1  0
  3  4  2  0
  4  5  1  0
  5  6  2  0
  6  7  1  0
  7  8  2  0
  8  9  1  0
  9 10  2  0
 10 11  1  0
 11 12  2  0
 12 13  1  0
 13 14  1  0
 14 15  2  0
 15 16  1  0
 10 17  1  0
 17 18  1  0
 18 19  1  0
  8  3  1  0
 15 11  1  0
 17  7  1  0
M  END
>  <Compound_ID>  (448) 
CHEMBL365072

>  <Molecule Name>  (448) 
nan

>  <Molecular Weight>  (448) 
258.29

>  <AlogP>  (448) 
1.65

>  <Smiles>  (448) 
CCc1nccc2c1nc(-c1nonc1N)n2CC

>  <Standard Type>  (448) 
Inhibition

>  <Standard Relation>  (448) 
'='

>  <Standard Units>  (448) 
%

>  <Standard Value>  (448) 
-1.01

>  <Assay ChEMBL ID>  (448) 
CHEMBL1962174

>  <Assay Description>  (448) 
GSK_PKIS: SYK mean inhibition at 0.1 uM [Nanosyn]

>  <BAO Format ID>  (448) 
BAO_0000357

>  <BAO Label>  (448) 
single protein format

>  <Assay Organism>  (448) 
None

>  <Target ChEMBL ID>  (448) 
CHEMBL2599

>  <Target Name>  (448) 
Tyrosine-protein kinase SYK

>  <Target Organism>  (448) 
Homo sapiens

>  <Target Type>  (448) 
SINGLE PROTEIN

>  <Document ChEMBL ID>  (448) 
CHEMBL1961873

>  <Source Description>  (448) 
GSK Published Kinase Inhibitor Set

>  <Document Journal>  (448) 
nan

>  <Document Year>  (448) 
nan

>  <Active>  (448) 
0.0

>  <bits>  (448) 
<rdkit.DataStructs.cDataStructs.ExplicitBitVect object at 0x00000193F33E63B0>

>  <Group>  (448) 
G2

$$$$

     RDKit          2D

 39 43  0  0  0  0  0  0  0  0999 V2000
   -9.7500   -1.2990    0.0000 C   0  0  0  0  0  0  0  0  0  0  0  0
   -8.2500   -1.2990    0.0000 N   0  0  0  0  0  0  0  0  0  0  0  0
   -7.5000    0.0000    0.0000 C   0  0  0  0  0  0  0  0  0  0  0  0
   -8.2500    1.2990    0.0000 O   0  0  0  0  0  0  0  0  0  0  0  0
   -6.0000    0.0000    0.0000 C   0  0  0  0  0  0  0  0  0  0  0  0
   -5.2500    1.2990    0.0000 N   0  0  0  0  0  0  0  0  0  0  0  0
   -3.7500    1.2990    0.0000 C   0  0  0  0  0  0  0  0  0  0  0  0
   -3.0000   -0.0000    0.0000 C   0  0  0  0  0  0  0  0  0  0  0  0
   -3.7500   -1.2990    0.0000 C   0  0  0  0  0  0  0  0  0  0  0  0
   -5.2500   -1.2990    0.0000 C   0  0  0  0  0  0  0  0  0  0  0  0
   -6.0000   -2.5981    0.0000 N   0  0  0  0  0  0  0  0  0  0  0  0
   -5.2500   -3.8971    0.0000 C   0  0  0  0  0  0  0  0  0  0  0  0
   -3.7500   -3.8971    0.0000 N   0  0  0  0  0  0  0  0  0  0  0  0
   -3.0000   -5.1962    0.0000 C   0  0  0  0  0  0  0  0  0  0  0  0
   -1.5000   -5.1962    0.0000 N   0  0  0  0  0  0  0  0  0  0  0  0
   -0.7500   -6.4952    0.0000 C   0  0  0  0  0  0  0  0  0  0  0  0
    0.7500   -6.4952    0.0000 C   0  0  0  0  0  0  0  0  0  0  0  0
    1.5000   -7.7942    0.0000 C   0  0  0  0  0  0  0  0  0  0  0  0
    0.7500   -9.0933    0.0000 C   0  0  0  0  0  0  0  0  0  0  0  0
   -0.7500   -9.0933    0.0000 C   0  0  0  0  0  0  0  0  0  0  0  0
   -1.5000   -7.7942    0.0000 C   0  0  0  0  0  0  0  0  0  0  0  0
   -3.0000   -7.7942    0.0000 O   0  0  0  0  0  0  0  0  0  0  0  0
   -3.7500   -9.0933    0.0000 C   0  0  0  0  0  0  0  0  0  0  0  0
    1.5000  -10.3923    0.0000 C   0  0  0  0  0  0  0  0  0  0  0  0
    3.0000  -10.3923    0.0000 C   0  0  0  0  0  0  0  0  0  0  0  0
    3.7500   -9.0933    0.0000 C   0  0  0  0  0  0  0  0  0  0  0  0
    3.0000   -7.7942    0.0000 N   0  0  0  0  0  0  0  0  0  0  0  0
    3.7500   -6.4952    0.0000 C   0  0  0  0  0  0  0  0  0  0  0  0
    3.0000   -5.1962    0.0000 O   0  0  0  0  0  0  0  0  0  0  0  0
    5.2500   -6.4952    0.0000 C   0  0  0  0  0  0  0  0  0  0  0  0
    6.0000   -5.1962    0.0000 N   0  0  0  0  0  0  0  0  0  0  0  0
    7.5000   -5.1962    0.0000 C   0  0  0  0  0  0  0  0  0  0  0  0
    5.2500   -3.8971    0.0000 C   0  0  0  0  0  0  0  0  0  0  0  0
   -3.7500   -6.4952    0.0000 N   0  0  0  0  0  0  0  0  0  0  0  0
   -5.2500   -6.4952    0.0000 C   0  0  0  0  0  0  0  0  0  0  0  0
   -6.2537   -7.6099    0.0000 N   0  0  0  0  0  0  0  0  0  0  0  0
   -7.6240   -6.9998    0.0000 C   0  0  0  0  0  0  0  0  0  0  0  0
   -7.4672   -5.5080    0.0000 C   0  0  0  0  0  0  0  0  0  0  0  0
   -6.0000   -5.1962    0.0000 C   0  0  0  0  0  0  0  0  0  0  0  0
  1  2  1  0
  2  3  1  0
  3  4  2  0
  3  5  1  0
  5  6  2  0
  6  7  1  0
  7  8  2  0
  8  9  1  0
  9 10  2  0
 10 11  1  0
 11 12  1  0
 12 13  2  0
 13 14  1  0
 14 15  1  0
 15 16  1  0
 16 17  2  0
 17 18  1  0
 18 19  2  0
 19 20  1  0
 20 21  2  0
 21 22  1  0
 22 23  1  0
 19 24  1  0
 24 25  1  0
 25 26  1  0
 26 27  1  0
 27 28  1  0
 28 29  2  0
 28 30  1  0
 30 31  1  0
 31 32  1  0
 31 33  1  0
 14 34  2  0
 34 35  1  0
 35 36  1  0
 36 37  1  0
 37 38  2  0
 38 39  1  0
 10  5  1  0
 39 12  1  0
 21 16  1  0
 39 35  2  0
 27 18  1  0
M  END
>  <Compound_ID>  (449) 
CHEMBL1895450

>  <Molecule Name>  (449) 
GSK-2220400A

>  <Molecular Weight>  (449) 
529.61

>  <AlogP>  (449) 
3.05

>  <Smiles>  (449) 
CNC(=O)c1ncccc1Nc1nc(Nc2cc3c(cc2OC)CCCN3C(=O)CN(C)C)nc2[nH]ccc12

>  <Standard Type>  (449) 
Inhibition

>  <Standard Relation>  (449) 
'='

>  <Standard Units>  (449) 
%

>  <Standard Value>  (449) 
1.95

>  <Assay ChEMBL ID>  (449) 
CHEMBL1962175

>  <Assay Description>  (449) 
GSK_PKIS: SYK mean inhibition at 1 uM [Nanosyn]

>  <BAO Format ID>  (449) 
BAO_0000357

>  <BAO Label>  (449) 
single protein format

>  <Assay Organism>  (449) 
None

>  <Target ChEMBL ID>  (449) 
CHEMBL2599

>  <Target Name>  (449) 
Tyrosine-protein kinase SYK

>  <Target Organism>  (449) 
Homo sapiens

>  <Target Type>  (449) 
SINGLE PROTEIN

>  <Document ChEMBL ID>  (449) 
CHEMBL1961873

>  <Source Description>  (449) 
GSK Published Kinase Inhibitor Set

>  <Document Journal>  (449) 
nan

>  <Document Year>  (449) 
nan

>  <Active>  (449) 
0.0

>  <bits>  (449) 
<rdkit.DataStructs.cDataStructs.ExplicitBitVect object at 0x00000193F33E6730>

>  <Group>  (449) 
G2

$$$$

     RDKit          2D

 26 29  0  0  0  0  0  0  0  0999 V2000
    4.6740   -4.8322    0.0000 N   0  0  0  0  0  0  0  0  0  0  0  0
    3.3037   -4.2221    0.0000 C   0  0  0  0  0  0  0  0  0  0  0  0
    2.9918   -2.7549    0.0000 N   0  0  0  0  0  0  0  0  0  0  0  0
    1.5000   -2.5981    0.0000 C   0  0  0  0  0  0  0  0  0  0  0  0
    0.7500   -1.2990    0.0000 C   0  0  0  0  0  0  0  0  0  0  0  0
    1.5000    0.0000    0.0000 C   0  0  0  0  0  0  0  0  0  0  0  0
    0.7500    1.2990    0.0000 C   0  0  0  0  0  0  0  0  0  0  0  0
   -0.7500    1.2990    0.0000 C   0  0  0  0  0  0  0  0  0  0  0  0
   -1.5000    0.0000    0.0000 C   0  0  0  0  0  0  0  0  0  0  0  0
   -0.7500   -1.2990    0.0000 C   0  0  0  0  0  0  0  0  0  0  0  0
   -2.9672    0.3119    0.0000 C   0  0  0  0  0  0  0  0  0  0  0  0
   -4.0819   -0.6918    0.0000 C   0  0  0  0  0  0  0  0  0  0  0  0
   -5.5085   -0.2283    0.0000 C   0  0  0  0  0  0  0  0  0  0  0  0
   -5.8204    1.2389    0.0000 C   0  0  0  0  0  0  0  0  0  0  0  0
   -7.2470    1.7024    0.0000 C   0  0  0  0  0  0  0  0  0  0  0  0
   -7.5588    3.1697    0.0000 Br  0  0  0  0  0  0  0  0  0  0  0  0
   -8.3617    0.6987    0.0000 C   0  0  0  0  0  0  0  0  0  0  0  0
   -9.7883    1.1623    0.0000 O   0  0  0  0  0  0  0  0  0  0  0  0
   -8.0498   -0.7685    0.0000 C   0  0  0  0  0  0  0  0  0  0  0  0
   -9.1645   -1.7722    0.0000 Br  0  0  0  0  0  0  0  0  0  0  0  0
   -6.6232   -1.2320    0.0000 C   0  0  0  0  0  0  0  0  0  0  0  0
   -3.1240    1.8037    0.0000 C   0  0  0  0  0  0  0  0  0  0  0  0
   -4.4231    2.5537    0.0000 O   0  0  0  0  0  0  0  0  0  0  0  0
   -1.7537    2.4138    0.0000 N   0  0  0  0  0  0  0  0  0  0  0  0
    0.8899   -3.9684    0.0000 C   0  0  0  0  0  0  0  0  0  0  0  0
    2.0046   -4.9721    0.0000 S   0  0  0  0  0  0  0  0  0  0  0  0
  1  2  1  0
  2  3  2  0
  3  4  1  0
  4  5  1  0
  5  6  2  0
  6  7  1  0
  7  8  2  0
  8  9  1  0
  9 10  2  0
  9 11  1  0
 11 12  2  3
 12 13  1  0
 13 14  2  0
 14 15  1  0
 15 16  1  0
 15 17  2  0
 17 18  1  0
 17 19  1  0
 19 20  1  0
 19 21  2  0
 11 22  1  0
 22 23  2  0
 22 24  1  0
  4 25  2  0
 25 26  1  0
 26  2  1  0
 10  5  1  0
 21 13  1  0
 24  8  1  0
M  END
>  <Compound_ID>  (450) 
CHEMBL1794053

>  <Molecule Name>  (450) 
GW407323A

>  <Molecular Weight>  (450) 
529.64

>  <AlogP>  (450) 
5.12

>  <Smiles>  (450) 
Nc1nc(-c2ccc3c(c2)C(=Cc2cc(Br)c(O)c(Br)c2)C(=O)N3)cs1

>  <Standard Type>  (450) 
Inhibition

>  <Standard Relation>  (450) 
'='

>  <Standard Units>  (450) 
%

>  <Standard Value>  (450) 
1.06

>  <Assay ChEMBL ID>  (450) 
CHEMBL1962174

>  <Assay Description>  (450) 
GSK_PKIS: SYK mean inhibition at 0.1 uM [Nanosyn]

>  <BAO Format ID>  (450) 
BAO_0000357

>  <BAO Label>  (450) 
single protein format

>  <Assay Organism>  (450) 
None

>  <Target ChEMBL ID>  (450) 
CHEMBL2599

>  <Target Name>  (450) 
Tyrosine-protein kinase SYK

>  <Target Organism>  (450) 
Homo sapiens

>  <Target Type>  (450) 
SINGLE PROTEIN

>  <Document ChEMBL ID>  (450) 
CHEMBL1961873

>  <Source Description>  (450) 
GSK Published Kinase Inhibitor Set

>  <Document Journal>  (450) 
nan

>  <Document Year>  (450) 
nan

>  <Active>  (450) 
0.0

>  <bits>  (450) 
<rdkit.DataStructs.cDataStructs.ExplicitBitVect object at 0x00000193F33E6E30>

>  <Group>  (450) 
G2

$$$$

     RDKit          2D

 32 36  0  0  0  0  0  0  0  0999 V2000
    3.0000    0.0000    0.0000 C   0  0  0  0  0  0  0  0  0  0  0  0
    1.5000    0.0000    0.0000 N   0  0  0  0  0  0  0  0  0  0  0  0
    0.7500   -1.2990    0.0000 C   0  0  0  0  0  0  0  0  0  0  0  0
   -0.7500   -1.2990    0.0000 C   0  0  0  0  0  0  0  0  0  0  0  0
   -1.5000    0.0000    0.0000 C   0  0  0  0  0  0  0  0  0  0  0  0
   -3.0000    0.0000    0.0000 N   0  0  0  0  0  0  0  0  0  0  0  0
   -3.8817   -1.2135    0.0000 C   0  0  0  0  0  0  0  0  0  0  0  0
   -5.3083   -0.7500    0.0000 N   0  0  0  0  0  0  0  0  0  0  0  0
   -5.3083    0.7500    0.0000 C   0  0  0  0  0  0  0  0  0  0  0  0
   -6.5218    1.6317    0.0000 C   0  0  0  0  0  0  0  0  0  0  0  0
   -6.3650    3.1235    0.0000 C   0  0  0  0  0  0  0  0  0  0  0  0
   -7.5785    4.0051    0.0000 C   0  0  0  0  0  0  0  0  0  0  0  0
   -8.9488    3.3950    0.0000 C   0  0  0  0  0  0  0  0  0  0  0  0
  -10.1624    4.2767    0.0000 F   0  0  0  0  0  0  0  0  0  0  0  0
   -9.1056    1.9033    0.0000 C   0  0  0  0  0  0  0  0  0  0  0  0
   -7.8921    1.0216    0.0000 C   0  0  0  0  0  0  0  0  0  0  0  0
   -3.8817    1.2135    0.0000 C   0  0  0  0  0  0  0  0  0  0  0  0
   -3.4182    2.6401    0.0000 C   0  0  0  0  0  0  0  0  0  0  0  0
   -1.9509    2.9520    0.0000 C   0  0  0  0  0  0  0  0  0  0  0  0
   -1.4874    4.3786    0.0000 C   0  0  0  0  0  0  0  0  0  0  0  0
   -2.4911    5.4933    0.0000 N   0  0  0  0  0  0  0  0  0  0  0  0
   -3.9583    5.1814    0.0000 C   0  0  0  0  0  0  0  0  0  0  0  0
   -4.9620    6.2961    0.0000 N   0  0  0  0  0  0  0  0  0  0  0  0
   -4.4985    7.7227    0.0000 C   0  0  0  0  0  0  0  0  0  0  0  0
   -3.0313    8.0346    0.0000 C   0  0  0  0  0  0  0  0  0  0  0  0
   -2.5677    9.4612    0.0000 C   0  0  0  0  0  0  0  0  0  0  0  0
   -3.5714   10.5759    0.0000 C   0  0  0  0  0  0  0  0  0  0  0  0
   -5.0387   10.2640    0.0000 C   0  0  0  0  0  0  0  0  0  0  0  0
   -5.5022    8.8374    0.0000 C   0  0  0  0  0  0  0  0  0  0  0  0
   -4.4218    3.7548    0.0000 N   0  0  0  0  0  0  0  0  0  0  0  0
   -0.7500    1.2990    0.0000 C   0  0  0  0  0  0  0  0  0  0  0  0
    0.7500    1.2990    0.0000 C   0  0  0  0  0  0  0  0  0  0  0  0
  1  2  1  0
  2  3  1  0
  3  4  1  0
  4  5  1  0
  5  6  1  0
  6  7  1  0
  7  8  2  0
  8  9  1  0
  9 10  1  0
 10 11  2  0
 11 12  1  0
 12 13  2  0
 13 14  1  0
 13 15  1  0
 15 16  2  0
  9 17  2  0
 17 18  1  0
 18 19  2  0
 19 20  1  0
 20 21  2  0
 21 22  1  0
 22 23  1  0
 23 24  1  0
 24 25  2  0
 25 26  1  0
 26 27  2  0
 27 28  1  0
 28 29  2  0
 22 30  2  0
  5 31  1  0
 31 32  1  0
 32  2  1  0
 17  6  1  0
 30 18  1  0
 16 10  1  0
 29 24  1  0
M  END
>  <Compound_ID>  (451) 
CHEMBL318892

>  <Molecule Name>  (451) 
nan

>  <Molecular Weight>  (451) 
428.52

>  <AlogP>  (451) 
5.16

>  <Smiles>  (451) 
CN1CCC(n2cnc(-c3ccc(F)cc3)c2-c2ccnc(Nc3ccccc3)n2)CC1

>  <Standard Type>  (451) 
Inhibition

>  <Standard Relation>  (451) 
'='

>  <Standard Units>  (451) 
%

>  <Standard Value>  (451) 
1.08

>  <Assay ChEMBL ID>  (451) 
CHEMBL1962174

>  <Assay Description>  (451) 
GSK_PKIS: SYK mean inhibition at 0.1 uM [Nanosyn]

>  <BAO Format ID>  (451) 
BAO_0000357

>  <BAO Label>  (451) 
single protein format

>  <Assay Organism>  (451) 
None

>  <Target ChEMBL ID>  (451) 
CHEMBL2599

>  <Target Name>  (451) 
Tyrosine-protein kinase SYK

>  <Target Organism>  (451) 
Homo sapiens

>  <Target Type>  (451) 
SINGLE PROTEIN

>  <Document ChEMBL ID>  (451) 
CHEMBL1961873

>  <Source Description>  (451) 
GSK Published Kinase Inhibitor Set

>  <Document Journal>  (451) 
nan

>  <Document Year>  (451) 
nan

>  <Active>  (451) 
0.0

>  <bits>  (451) 
<rdkit.DataStructs.cDataStructs.ExplicitBitVect object at 0x00000193F33E5A10>

>  <Group>  (451) 
G2

$$$$

     RDKit          2D

 17 19  0  0  0  0  0  0  0  0999 V2000
   -2.6401   -3.1891    0.0000 C   0  0  0  0  0  0  0  0  0  0  0  0
   -1.2135   -2.7256    0.0000 C   0  0  0  0  0  0  0  0  0  0  0  0
   -0.0000   -3.6073    0.0000 N   0  0  0  0  0  0  0  0  0  0  0  0
    1.2135   -2.7256    0.0000 N   0  0  0  0  0  0  0  0  0  0  0  0
    0.7500   -1.2990    0.0000 C   0  0  0  0  0  0  0  0  0  0  0  0
    1.5000    0.0000    0.0000 C   0  0  0  0  0  0  0  0  0  0  0  0
    0.7500    1.2990    0.0000 C   0  0  0  0  0  0  0  0  0  0  0  0
   -0.7500    1.2990    0.0000 N   0  0  0  0  0  0  0  0  0  0  0  0
   -1.5000    0.0000    0.0000 C   0  0  0  0  0  0  0  0  0  0  0  0
   -3.0000    0.0000    0.0000 N   0  0  0  0  0  0  0  0  0  0  0  0
   -3.7500    1.2990    0.0000 C   0  0  0  0  0  0  0  0  0  0  0  0
   -3.0000    2.5981    0.0000 C   0  0  0  0  0  0  0  0  0  0  0  0
   -3.7500    3.8971    0.0000 C   0  0  0  0  0  0  0  0  0  0  0  0
   -5.2500    3.8971    0.0000 C   0  0  0  0  0  0  0  0  0  0  0  0
   -6.0000    2.5981    0.0000 C   0  0  0  0  0  0  0  0  0  0  0  0
   -5.2500    1.2990    0.0000 C   0  0  0  0  0  0  0  0  0  0  0  0
   -0.7500   -1.2990    0.0000 C   0  0  0  0  0  0  0  0  0  0  0  0
  1  2  1  0
  2  3  2  0
  3  4  1  0
  4  5  1  0
  5  6  2  0
  6  7  1  0
  7  8  2  0
  8  9  1  0
  9 10  1  0
 10 11  1  0
 11 12  1  0
 12 13  1  0
 13 14  1  0
 14 15  1  0
 15 16  1  0
  9 17  2  0
 17  2  1  0
 17  5  1  0
 16 11  1  0
M  END
>  <Compound_ID>  (452) 
CHEMBL4440433

>  <Molecule Name>  (452) 
nan

>  <Molecular Weight>  (452) 
230.31

>  <AlogP>  (452) 
3.01

>  <Smiles>  (452) 
Cc1n[nH]c2ccnc(NC3CCCCC3)c12

>  <Standard Type>  (452) 
Inhibition

>  <Standard Relation>  (452) 
'='

>  <Standard Units>  (452) 
%

>  <Standard Value>  (452) 
17.0

>  <Assay ChEMBL ID>  (452) 
CHEMBL4331961

>  <Assay Description>  (452) 
Inhibition of SYK (unknown origin) at 10 uM relative to control

>  <BAO Format ID>  (452) 
BAO_0000357

>  <BAO Label>  (452) 
single protein format

>  <Assay Organism>  (452) 
Homo sapiens

>  <Target ChEMBL ID>  (452) 
CHEMBL2599

>  <Target Name>  (452) 
Tyrosine-protein kinase SYK

>  <Target Organism>  (452) 
Homo sapiens

>  <Target Type>  (452) 
SINGLE PROTEIN

>  <Document ChEMBL ID>  (452) 
CHEMBL4330096

>  <Source Description>  (452) 
Scientific Literature

>  <Document Journal>  (452) 
Bioorg Med Chem Lett

>  <Document Year>  (452) 
2019.0

>  <Active>  (452) 
0.0

>  <bits>  (452) 
<rdkit.DataStructs.cDataStructs.ExplicitBitVect object at 0x00000193F33E6EA0>

>  <Group>  (452) 
G2

$$$$

     RDKit          2D

 43 47  0  0  0  0  0  0  0  0999 V2000
   -1.2064  -10.6676    0.0000 C   0  0  0  0  0  0  0  0  0  0  0  0
   -1.0496   -9.1759    0.0000 C   0  0  0  0  0  0  0  0  0  0  0  0
    0.3207   -8.5658    0.0000 C   0  0  0  0  0  0  0  0  0  0  0  0
    0.4775   -7.0740    0.0000 N   0  0  0  0  0  0  0  0  0  0  0  0
   -0.7360   -6.1923    0.0000 C   0  0  0  0  0  0  0  0  0  0  0  0
   -2.1063   -6.8024    0.0000 C   0  0  0  0  0  0  0  0  0  0  0  0
   -3.3199   -5.9207    0.0000 S   0  0  0  0  0  0  0  0  0  0  0  0
   -4.5334   -5.0390    0.0000 C   0  0  0  0  0  0  0  0  0  0  0  0
   -2.4382   -4.7072    0.0000 O   0  0  0  0  0  0  0  0  0  0  0  0
   -4.2015   -7.1343    0.0000 O   0  0  0  0  0  0  0  0  0  0  0  0
    1.8478   -6.4639    0.0000 C   0  0  0  0  0  0  0  0  0  0  0  0
    2.0046   -4.9721    0.0000 C   0  0  0  0  0  0  0  0  0  0  0  0
    3.3037   -4.2221    0.0000 C   0  0  0  0  0  0  0  0  0  0  0  0
    2.9918   -2.7549    0.0000 C   0  0  0  0  0  0  0  0  0  0  0  0
    1.5000   -2.5981    0.0000 C   0  0  0  0  0  0  0  0  0  0  0  0
    0.7500   -1.2990    0.0000 C   0  0  0  0  0  0  0  0  0  0  0  0
    1.5000    0.0000    0.0000 C   0  0  0  0  0  0  0  0  0  0  0  0
    0.7500    1.2990    0.0000 C   0  0  0  0  0  0  0  0  0  0  0  0
   -0.7500    1.2990    0.0000 C   0  0  0  0  0  0  0  0  0  0  0  0
   -1.5000    2.5981    0.0000 N   0  0  0  0  0  0  0  0  0  0  0  0
   -3.0000    2.5981    0.0000 C   0  0  0  0  0  0  0  0  0  0  0  0
   -3.7500    1.2990    0.0000 N   0  0  0  0  0  0  0  0  0  0  0  0
   -3.0000    0.0000    0.0000 C   0  0  0  0  0  0  0  0  0  0  0  0
   -3.7500   -1.2990    0.0000 N   0  0  0  0  0  0  0  0  0  0  0  0
   -5.2500   -1.2990    0.0000 C   0  0  0  0  0  0  0  0  0  0  0  0
   -6.0000    0.0000    0.0000 C   0  0  0  0  0  0  0  0  0  0  0  0
   -7.5000    0.0000    0.0000 C   0  0  0  0  0  0  0  0  0  0  0  0
   -8.2500   -1.2990    0.0000 C   0  0  0  0  0  0  0  0  0  0  0  0
   -9.7500   -1.2990    0.0000 O   0  0  0  0  0  0  0  0  0  0  0  0
  -10.5000    0.0000    0.0000 C   0  0  0  0  0  0  0  0  0  0  0  0
  -12.0000    0.0000    0.0000 C   0  0  0  0  0  0  0  0  0  0  0  0
  -12.7500    1.2990    0.0000 C   0  0  0  0  0  0  0  0  0  0  0  0
  -14.2500    1.2990    0.0000 C   0  0  0  0  0  0  0  0  0  0  0  0
  -15.0000    0.0000    0.0000 C   0  0  0  0  0  0  0  0  0  0  0  0
  -14.2500   -1.2990    0.0000 C   0  0  0  0  0  0  0  0  0  0  0  0
  -15.0000   -2.5981    0.0000 F   0  0  0  0  0  0  0  0  0  0  0  0
  -12.7500   -1.2990    0.0000 C   0  0  0  0  0  0  0  0  0  0  0  0
   -7.5000   -2.5981    0.0000 C   0  0  0  0  0  0  0  0  0  0  0  0
   -8.2500   -3.8971    0.0000 Cl  0  0  0  0  0  0  0  0  0  0  0  0
   -6.0000   -2.5981    0.0000 C   0  0  0  0  0  0  0  0  0  0  0  0
   -1.5000    0.0000    0.0000 C   0  0  0  0  0  0  0  0  0  0  0  0
   -0.7500   -1.2990    0.0000 C   0  0  0  0  0  0  0  0  0  0  0  0
    0.8899   -3.9684    0.0000 O   0  0  0  0  0  0  0  0  0  0  0  0
  1  2  1  0
  2  3  1  0
  3  4  1  0
  4  5  1  0
  5  6  1  0
  6  7  1  0
  7  8  1  0
  7  9  2  0
  7 10  2  0
  4 11  1  0
 11 12  1  0
 12 13  2  0
 13 14  1  0
 14 15  2  0
 15 16  1  0
 16 17  2  0
 17 18  1  0
 18 19  2  0
 19 20  1  0
 20 21  2  0
 21 22  1  0
 22 23  2  0
 23 24  1  0
 24 25  1  0
 25 26  2  0
 26 27  1  0
 27 28  2  0
 28 29  1  0
 29 30  1  0
 30 31  1  0
 31 32  2  0
 32 33  1  0
 33 34  2  0
 34 35  1  0
 35 36  1  0
 35 37  2  0
 28 38  1  0
 38 39  1  0
 38 40  2  0
 23 41  1  0
 41 42  2  0
 15 43  1  0
 43 12  1  0
 42 16  1  0
 41 19  1  0
 40 25  1  0
 37 31  1  0
M  END
>  <Compound_ID>  (453) 
CHEMBL1909394

>  <Molecule Name>  (453) 
GW621823A

>  <Molecular Weight>  (453) 
659.61

>  <AlogP>  (453) 
7.26

>  <Smiles>  (453) 
CCCN(CCS(C)(=O)=O)Cc1ccc(-c2ccc3ncnc(Nc4ccc(OCc5cccc(F)c5)c(Cl)c4)c3c2)o1

>  <Standard Type>  (453) 
Inhibition

>  <Standard Relation>  (453) 
'='

>  <Standard Units>  (453) 
%

>  <Standard Value>  (453) 
-1.64

>  <Assay ChEMBL ID>  (453) 
CHEMBL1962174

>  <Assay Description>  (453) 
GSK_PKIS: SYK mean inhibition at 0.1 uM [Nanosyn]

>  <BAO Format ID>  (453) 
BAO_0000357

>  <BAO Label>  (453) 
single protein format

>  <Assay Organism>  (453) 
None

>  <Target ChEMBL ID>  (453) 
CHEMBL2599

>  <Target Name>  (453) 
Tyrosine-protein kinase SYK

>  <Target Organism>  (453) 
Homo sapiens

>  <Target Type>  (453) 
SINGLE PROTEIN

>  <Document ChEMBL ID>  (453) 
CHEMBL1961873

>  <Source Description>  (453) 
GSK Published Kinase Inhibitor Set

>  <Document Journal>  (453) 
nan

>  <Document Year>  (453) 
nan

>  <Active>  (453) 
0.0

>  <bits>  (453) 
<rdkit.DataStructs.cDataStructs.ExplicitBitVect object at 0x00000193F33E7610>

>  <Group>  (453) 
G2

$$$$

     RDKit          2D

 35 37  0  0  0  0  0  0  0  0999 V2000
    9.7500   -3.8971    0.0000 C   0  0  0  0  0  0  0  0  0  0  0  0
    8.2500   -3.8971    0.0000 N   0  0  0  0  0  0  0  0  0  0  0  0
    7.5000   -5.1962    0.0000 C   0  0  0  0  0  0  0  0  0  0  0  0
    7.5000   -2.5981    0.0000 C   0  0  0  0  0  0  0  0  0  0  0  0
    6.0000   -2.5981    0.0000 C   0  0  0  0  0  0  0  0  0  0  0  0
    5.2500   -1.2990    0.0000 N   0  0  0  0  0  0  0  0  0  0  0  0
    3.7500   -1.2990    0.0000 C   0  0  0  0  0  0  0  0  0  0  0  0
    3.0000   -2.5981    0.0000 O   0  0  0  0  0  0  0  0  0  0  0  0
    3.0000    0.0000    0.0000 N   0  0  0  0  0  0  0  0  0  0  0  0
    1.5000    0.0000    0.0000 C   0  0  0  0  0  0  0  0  0  0  0  0
    0.7500   -1.2990    0.0000 C   0  0  0  0  0  0  0  0  0  0  0  0
   -0.7500   -1.2990    0.0000 C   0  0  0  0  0  0  0  0  0  0  0  0
   -1.5000    0.0000    0.0000 C   0  0  0  0  0  0  0  0  0  0  0  0
   -3.0000    0.0000    0.0000 N   0  0  0  0  0  0  0  0  0  0  0  0
   -3.7500    1.2990    0.0000 C   0  0  0  0  0  0  0  0  0  0  0  0
   -3.7500   -1.2990    0.0000 C   0  0  0  0  0  0  0  0  0  0  0  0
   -5.2500   -1.2990    0.0000 C   0  0  0  0  0  0  0  0  0  0  0  0
   -6.0000   -2.5981    0.0000 C   0  0  0  0  0  0  0  0  0  0  0  0
   -5.2500   -3.8971    0.0000 N   0  0  0  0  0  0  0  0  0  0  0  0
   -3.7500   -3.8971    0.0000 C   0  0  0  0  0  0  0  0  0  0  0  0
   -3.0000   -5.1962    0.0000 N   0  0  0  0  0  0  0  0  0  0  0  0
   -3.7500   -6.4952    0.0000 C   0  0  0  0  0  0  0  0  0  0  0  0
   -5.2500   -6.4952    0.0000 C   0  0  0  0  0  0  0  0  0  0  0  0
   -6.0000   -7.7942    0.0000 C   0  0  0  0  0  0  0  0  0  0  0  0
   -5.2500   -9.0933    0.0000 C   0  0  0  0  0  0  0  0  0  0  0  0
   -6.0000  -10.3923    0.0000 C   0  0  0  0  0  0  0  0  0  0  0  0
   -7.5000  -10.3923    0.0000 S   0  0  0  0  0  0  0  0  0  0  0  0
   -9.0000  -10.3923    0.0000 C   0  0  0  0  0  0  0  0  0  0  0  0
   -7.5000   -8.8923    0.0000 O   0  0  0  0  0  0  0  0  0  0  0  0
   -7.5000  -11.8923    0.0000 O   0  0  0  0  0  0  0  0  0  0  0  0
   -3.7500   -9.0933    0.0000 C   0  0  0  0  0  0  0  0  0  0  0  0
   -3.0000   -7.7942    0.0000 C   0  0  0  0  0  0  0  0  0  0  0  0
   -3.0000   -2.5981    0.0000 N   0  0  0  0  0  0  0  0  0  0  0  0
   -0.7500    1.2990    0.0000 C   0  0  0  0  0  0  0  0  0  0  0  0
    0.7500    1.2990    0.0000 C   0  0  0  0  0  0  0  0  0  0  0  0
  1  2  1  0
  2  3  1  0
  2  4  1  0
  4  5  1  0
  5  6  1  0
  6  7  1  0
  7  8  2  0
  7  9  1  0
  9 10  1  0
 10 11  2  0
 11 12  1  0
 12 13  2  0
 13 14  1  0
 14 15  1  0
 14 16  1  0
 16 17  2  0
 17 18  1  0
 18 19  2  0
 19 20  1  0
 20 21  1  0
 21 22  1  0
 22 23  2  0
 23 24  1  0
 24 25  2  0
 25 26  1  0
 26 27  1  0
 27 28  1  0
 27 29  2  0
 27 30  2  0
 25 31  1  0
 31 32  2  0
 20 33  2  0
 13 34  1  0
 34 35  2  0
 35 10  1  0
 33 16  1  0
 32 22  1  0
M  END
>  <Compound_ID>  (454) 
CHEMBL1909362

>  <Molecule Name>  (454) 
GW830900A

>  <Molecular Weight>  (454) 
534.09

>  <AlogP>  (454) 
3.22

>  <Smiles>  (454) 
CN(C)CCNC(=O)Nc1ccc(N(C)c2ccnc(Nc3ccc(CS(C)(=O)=O)cc3)n2)cc1

>  <Standard Type>  (454) 
Inhibition

>  <Standard Relation>  (454) 
'='

>  <Standard Units>  (454) 
%

>  <Standard Value>  (454) 
-4.06

>  <Assay ChEMBL ID>  (454) 
CHEMBL1962174

>  <Assay Description>  (454) 
GSK_PKIS: SYK mean inhibition at 0.1 uM [Nanosyn]

>  <BAO Format ID>  (454) 
BAO_0000357

>  <BAO Label>  (454) 
single protein format

>  <Assay Organism>  (454) 
None

>  <Target ChEMBL ID>  (454) 
CHEMBL2599

>  <Target Name>  (454) 
Tyrosine-protein kinase SYK

>  <Target Organism>  (454) 
Homo sapiens

>  <Target Type>  (454) 
SINGLE PROTEIN

>  <Document ChEMBL ID>  (454) 
CHEMBL1961873

>  <Source Description>  (454) 
GSK Published Kinase Inhibitor Set

>  <Document Journal>  (454) 
nan

>  <Document Year>  (454) 
nan

>  <Active>  (454) 
0.0

>  <bits>  (454) 
<rdkit.DataStructs.cDataStructs.ExplicitBitVect object at 0x00000193F33E7A00>

>  <Group>  (454) 
G2

$$$$

     RDKit          2D

 30 33  0  0  0  0  0  0  0  0999 V2000
    1.3299    5.6152    0.0000 C   0  0  0  0  0  0  0  0  0  0  0  0
   -0.0967    5.1517    0.0000 O   0  0  0  0  0  0  0  0  0  0  0  0
   -0.4086    3.6844    0.0000 C   0  0  0  0  0  0  0  0  0  0  0  0
    0.7062    2.6807    0.0000 C   0  0  0  0  0  0  0  0  0  0  0  0
    0.3943    1.2135    0.0000 C   0  0  0  0  0  0  0  0  0  0  0  0
    1.2760    0.0000    0.0000 N   0  0  0  0  0  0  0  0  0  0  0  0
    0.3943   -1.2135    0.0000 C   0  0  0  0  0  0  0  0  0  0  0  0
   -1.0323   -0.7500    0.0000 N   0  0  0  0  0  0  0  0  0  0  0  0
   -2.2458   -1.6317    0.0000 C   0  0  0  0  0  0  0  0  0  0  0  0
   -2.2458   -3.1317    0.0000 C   0  0  0  0  0  0  0  0  0  0  0  0
   -3.6724   -3.5952    0.0000 C   0  0  0  0  0  0  0  0  0  0  0  0
   -4.1359   -5.0218    0.0000 O   0  0  0  0  0  0  0  0  0  0  0  0
   -5.6031   -5.3337    0.0000 C   0  0  0  0  0  0  0  0  0  0  0  0
   -6.0667   -6.7602    0.0000 C   0  0  0  0  0  0  0  0  0  0  0  0
   -7.5339   -7.0721    0.0000 C   0  0  0  0  0  0  0  0  0  0  0  0
   -8.5376   -5.9574    0.0000 C   0  0  0  0  0  0  0  0  0  0  0  0
  -10.0048   -6.2693    0.0000 C   0  0  0  0  0  0  0  0  0  0  0  0
  -10.4683   -7.6958    0.0000 C   0  0  0  0  0  0  0  0  0  0  0  0
   -9.4646   -8.8106    0.0000 C   0  0  0  0  0  0  0  0  0  0  0  0
   -7.9974   -8.4987    0.0000 C   0  0  0  0  0  0  0  0  0  0  0  0
   -4.5541   -2.3817    0.0000 C   0  0  0  0  0  0  0  0  0  0  0  0
   -6.0541   -2.3817    0.0000 C   0  0  0  0  0  0  0  0  0  0  0  0
   -6.8041   -1.0826    0.0000 N   0  0  0  0  0  0  0  0  0  0  0  0
   -6.8041   -3.6807    0.0000 O   0  0  0  0  0  0  0  0  0  0  0  0
   -3.6724   -1.1682    0.0000 S   0  0  0  0  0  0  0  0  0  0  0  0
   -1.0323    0.7500    0.0000 C   0  0  0  0  0  0  0  0  0  0  0  0
   -2.1470    1.7537    0.0000 C   0  0  0  0  0  0  0  0  0  0  0  0
   -1.8351    3.2209    0.0000 C   0  0  0  0  0  0  0  0  0  0  0  0
   -2.9499    4.2246    0.0000 O   0  0  0  0  0  0  0  0  0  0  0  0
   -4.3764    3.7611    0.0000 C   0  0  0  0  0  0  0  0  0  0  0  0
  1  2  1  0
  2  3  1  0
  3  4  2  0
  4  5  1  0
  5  6  1  0
  6  7  2  0
  7  8  1  0
  8  9  1  0
  9 10  2  0
 10 11  1  0
 11 12  1  0
 12 13  1  0
 13 14  1  0
 14 15  1  0
 15 16  2  0
 16 17  1  0
 17 18  2  0
 18 19  1  0
 19 20  2  0
 11 21  2  0
 21 22  1  0
 22 23  1  0
 22 24  2  0
 21 25  1  0
  8 26  1  0
 26 27  1  0
 27 28  2  0
 28 29  1  0
 29 30  1  0
 28  3  1  0
 26  5  2  0
 25  9  1  0
 20 15  1  0
M  END
>  <Compound_ID>  (455) 
CHEMBL473629

>  <Molecule Name>  (455) 
GSK-204925A

>  <Molecular Weight>  (455) 
423.49

>  <AlogP>  (455) 
3.82

>  <Smiles>  (455) 
COc1cc2ncn(-c3cc(OCCc4ccccc4)c(C(N)=O)s3)c2cc1OC

>  <Standard Type>  (455) 
Inhibition

>  <Standard Relation>  (455) 
'='

>  <Standard Units>  (455) 
%

>  <Standard Value>  (455) 
-2.02

>  <Assay ChEMBL ID>  (455) 
CHEMBL1962174

>  <Assay Description>  (455) 
GSK_PKIS: SYK mean inhibition at 0.1 uM [Nanosyn]

>  <BAO Format ID>  (455) 
BAO_0000357

>  <BAO Label>  (455) 
single protein format

>  <Assay Organism>  (455) 
None

>  <Target ChEMBL ID>  (455) 
CHEMBL2599

>  <Target Name>  (455) 
Tyrosine-protein kinase SYK

>  <Target Organism>  (455) 
Homo sapiens

>  <Target Type>  (455) 
SINGLE PROTEIN

>  <Document ChEMBL ID>  (455) 
CHEMBL1961873

>  <Source Description>  (455) 
GSK Published Kinase Inhibitor Set

>  <Document Journal>  (455) 
nan

>  <Document Year>  (455) 
nan

>  <Active>  (455) 
0.0

>  <bits>  (455) 
<rdkit.DataStructs.cDataStructs.ExplicitBitVect object at 0x00000193F33E76F0>

>  <Group>  (455) 
G2

$$$$

     RDKit          2D

 21 23  0  0  0  0  0  0  0  0999 V2000
    4.0667   -3.6527    0.0000 N   0  0  0  0  0  0  0  0  0  0  0  0
    2.6401   -3.1891    0.0000 C   0  0  0  0  0  0  0  0  0  0  0  0
    1.2135   -2.7256    0.0000 C   0  0  0  0  0  0  0  0  0  0  0  0
   -0.0000   -3.6073    0.0000 C   0  0  0  0  0  0  0  0  0  0  0  0
   -0.0000   -5.1073    0.0000 N   0  0  0  0  0  0  0  0  0  0  0  0
   -1.2990   -5.8573    0.0000 C   0  0  0  0  0  0  0  0  0  0  0  0
   -2.5981   -5.1073    0.0000 O   0  0  0  0  0  0  0  0  0  0  0  0
   -1.2990   -7.3573    0.0000 C   0  0  0  0  0  0  0  0  0  0  0  0
   -2.5981   -8.1073    0.0000 N   0  0  0  0  0  0  0  0  0  0  0  0
   -3.8971   -7.3573    0.0000 C   0  0  0  0  0  0  0  0  0  0  0  0
   -5.1962   -8.1073    0.0000 C   0  0  0  0  0  0  0  0  0  0  0  0
   -5.1962   -9.6073    0.0000 O   0  0  0  0  0  0  0  0  0  0  0  0
   -3.8971  -10.3573    0.0000 C   0  0  0  0  0  0  0  0  0  0  0  0
   -2.5981   -9.6073    0.0000 C   0  0  0  0  0  0  0  0  0  0  0  0
   -1.2135   -2.7256    0.0000 S   0  0  0  0  0  0  0  0  0  0  0  0
   -0.7500   -1.2990    0.0000 C   0  0  0  0  0  0  0  0  0  0  0  0
    0.7500   -1.2990    0.0000 C   0  0  0  0  0  0  0  0  0  0  0  0
    1.5000    0.0000    0.0000 C   0  0  0  0  0  0  0  0  0  0  0  0
    0.7500    1.2990    0.0000 C   0  0  0  0  0  0  0  0  0  0  0  0
   -0.7500    1.2990    0.0000 C   0  0  0  0  0  0  0  0  0  0  0  0
   -1.5000    0.0000    0.0000 C   0  0  0  0  0  0  0  0  0  0  0  0
  1  2  3  0
  2  3  1  0
  3  4  2  0
  4  5  1  0
  5  6  1  0
  6  7  2  0
  6  8  1  0
  8  9  1  0
  9 10  1  0
 10 11  1  0
 11 12  1  0
 12 13  1  0
 13 14  1  0
  4 15  1  0
 15 16  1  0
 16 17  2  0
 17 18  1  0
 18 19  1  0
 19 20  1  0
 20 21  1  0
 17  3  1  0
 14  9  1  0
 21 16  1  0
M  END
>  <Compound_ID>  (456) 
CHEMBL1909342

>  <Molecule Name>  (456) 
nan

>  <Molecular Weight>  (456) 
395.44

>  <AlogP>  (456) 
1.77

>  <Smiles>  (456) 
N#Cc1c(NC(=O)CN2CCOCC2)sc2c1CCCC2

>  <Standard Type>  (456) 
Inhibition

>  <Standard Relation>  (456) 
'='

>  <Standard Units>  (456) 
%

>  <Standard Value>  (456) 
-1.53

>  <Assay ChEMBL ID>  (456) 
CHEMBL1962175

>  <Assay Description>  (456) 
GSK_PKIS: SYK mean inhibition at 1 uM [Nanosyn]

>  <BAO Format ID>  (456) 
BAO_0000357

>  <BAO Label>  (456) 
single protein format

>  <Assay Organism>  (456) 
None

>  <Target ChEMBL ID>  (456) 
CHEMBL2599

>  <Target Name>  (456) 
Tyrosine-protein kinase SYK

>  <Target Organism>  (456) 
Homo sapiens

>  <Target Type>  (456) 
SINGLE PROTEIN

>  <Document ChEMBL ID>  (456) 
CHEMBL1961873

>  <Source Description>  (456) 
GSK Published Kinase Inhibitor Set

>  <Document Journal>  (456) 
nan

>  <Document Year>  (456) 
nan

>  <Active>  (456) 
0.0

>  <bits>  (456) 
<rdkit.DataStructs.cDataStructs.ExplicitBitVect object at 0x00000193F33E45F0>

>  <Group>  (456) 
G2

$$$$

     RDKit          2D

 26 28  0  0  0  0  0  0  0  0999 V2000
    3.0000    0.0000    0.0000 C   0  0  0  0  0  0  0  0  0  0  0  0
    1.5000    0.0000    0.0000 C   0  0  0  0  0  0  0  0  0  0  0  0
    0.7500   -1.2990    0.0000 C   0  0  0  0  0  0  0  0  0  0  0  0
    1.5000   -2.5981    0.0000 Cl  0  0  0  0  0  0  0  0  0  0  0  0
   -0.7500   -1.2990    0.0000 C   0  0  0  0  0  0  0  0  0  0  0  0
   -1.5000    0.0000    0.0000 C   0  0  0  0  0  0  0  0  0  0  0  0
   -0.7500    1.2990    0.0000 C   0  0  0  0  0  0  0  0  0  0  0  0
    0.7500    1.2990    0.0000 C   0  0  0  0  0  0  0  0  0  0  0  0
    1.5000    2.5981    0.0000 C   0  0  0  0  0  0  0  0  0  0  0  0
    0.8899    3.9684    0.0000 C   0  0  0  0  0  0  0  0  0  0  0  0
    2.0046    4.9721    0.0000 C   0  0  0  0  0  0  0  0  0  0  0  0
    3.3037    4.2221    0.0000 C   0  0  0  0  0  0  0  0  0  0  0  0
    4.6740    4.8322    0.0000 C   0  0  0  0  0  0  0  0  0  0  0  0
    4.8308    6.3240    0.0000 O   0  0  0  0  0  0  0  0  0  0  0  0
    5.8875    3.9505    0.0000 N   0  0  0  0  0  0  0  0  0  0  0  0
    7.2578    4.5606    0.0000 C   0  0  0  0  0  0  0  0  0  0  0  0
    8.4713    3.6789    0.0000 C   0  0  0  0  0  0  0  0  0  0  0  0
    9.8417    4.2890    0.0000 C   0  0  0  0  0  0  0  0  0  0  0  0
    9.9984    5.7808    0.0000 C   0  0  0  0  0  0  0  0  0  0  0  0
   11.3688    6.3909    0.0000 S   0  0  0  0  0  0  0  0  0  0  0  0
   12.7391    7.0010    0.0000 N   0  0  0  0  0  0  0  0  0  0  0  0
   11.9789    5.0206    0.0000 O   0  0  0  0  0  0  0  0  0  0  0  0
   10.7587    7.7613    0.0000 O   0  0  0  0  0  0  0  0  0  0  0  0
    8.7849    6.6625    0.0000 C   0  0  0  0  0  0  0  0  0  0  0  0
    7.4146    6.0524    0.0000 C   0  0  0  0  0  0  0  0  0  0  0  0
    2.9918    2.7549    0.0000 O   0  0  0  0  0  0  0  0  0  0  0  0
  1  2  1  0
  2  3  2  0
  3  4  1  0
  3  5  1  0
  5  6  2  0
  6  7  1  0
  7  8  2  0
  8  9  1  0
  9 10  2  0
 10 11  1  0
 11 12  2  0
 12 13  1  0
 13 14  2  0
 13 15  1  0
 15 16  1  0
 16 17  2  0
 17 18  1  0
 18 19  2  0
 19 20  1  0
 20 21  1  0
 20 22  2  0
 20 23  2  0
 19 24  1  0
 24 25  2  0
 12 26  1  0
  8  2  1  0
 26  9  1  0
 25 16  1  0
M  END
>  <Compound_ID>  (457) 
CHEMBL3752265

>  <Molecule Name>  (457) 
nan

>  <Molecular Weight>  (457) 
390.85

>  <AlogP>  (457) 
3.81

>  <Smiles>  (457) 
Cc1c(Cl)cccc1-c1ccc(C(=O)Nc2ccc(S(N)(=O)=O)cc2)o1

>  <Standard Type>  (457) 
Inhibition

>  <Standard Relation>  (457) 
'='

>  <Standard Units>  (457) 
%

>  <Standard Value>  (457) 
15.3

>  <Assay ChEMBL ID>  (457) 
CHEMBL3756764

>  <Assay Description>  (457) 
Inhibition of human SYK using srctide as substrate at 10 uM after 1 hr in presence of 30 uM ATP

>  <BAO Format ID>  (457) 
BAO_0000357

>  <BAO Label>  (457) 
single protein format

>  <Assay Organism>  (457) 
Homo sapiens

>  <Target ChEMBL ID>  (457) 
CHEMBL2599

>  <Target Name>  (457) 
Tyrosine-protein kinase SYK

>  <Target Organism>  (457) 
Homo sapiens

>  <Target Type>  (457) 
SINGLE PROTEIN

>  <Document ChEMBL ID>  (457) 
CHEMBL3751797

>  <Source Description>  (457) 
Scientific Literature

>  <Document Journal>  (457) 
Medchemcomm

>  <Document Year>  (457) 
2015.0

>  <Active>  (457) 
0.0

>  <bits>  (457) 
<rdkit.DataStructs.cDataStructs.ExplicitBitVect object at 0x00000193F33E4E40>

>  <Group>  (457) 
G2

$$$$

     RDKit          2D

 16 18  0  0  0  0  0  0  0  0999 V2000
    2.6401   -3.1891    0.0000 O   0  0  0  0  0  0  0  0  0  0  0  0
    1.2135   -2.7256    0.0000 C   0  0  0  0  0  0  0  0  0  0  0  0
    0.7500   -1.2990    0.0000 C   0  0  0  0  0  0  0  0  0  0  0  0
    1.5000    0.0000    0.0000 C   0  0  0  0  0  0  0  0  0  0  0  0
    0.7500    1.2990    0.0000 C   0  0  0  0  0  0  0  0  0  0  0  0
   -0.7500    1.2990    0.0000 C   0  0  0  0  0  0  0  0  0  0  0  0
   -1.5000    0.0000    0.0000 C   0  0  0  0  0  0  0  0  0  0  0  0
   -0.7500   -1.2990    0.0000 C   0  0  0  0  0  0  0  0  0  0  0  0
   -1.2135   -2.7256    0.0000 Se  0  0  0  0  0  2  0  0  0  0  0  0
   -0.0000   -3.6073    0.0000 N   0  0  0  0  0  0  0  0  0  0  0  0
   -0.0000   -5.1073    0.0000 C   0  0  0  0  0  0  0  0  0  0  0  0
   -1.2990   -5.8573    0.0000 C   0  0  0  0  0  0  0  0  0  0  0  0
   -1.2990   -7.3573    0.0000 C   0  0  0  0  0  0  0  0  0  0  0  0
   -0.0000   -8.1073    0.0000 C   0  0  0  0  0  0  0  0  0  0  0  0
    1.2990   -7.3573    0.0000 C   0  0  0  0  0  0  0  0  0  0  0  0
    1.2990   -5.8573    0.0000 C   0  0  0  0  0  0  0  0  0  0  0  0
  1  2  2  0
  2  3  1  0
  3  4  2  0
  4  5  1  0
  5  6  2  0
  6  7  1  0
  7  8  2  0
  8  9  1  0
  9 10  1  0
 10 11  1  0
 11 12  2  0
 12 13  1  0
 13 14  2  0
 14 15  1  0
 15 16  2  0
 10  2  1  0
 16 11  1  0
  8  3  1  0
M  END
>  <Compound_ID>  (458) 
CHEMBL51085

>  <Molecule Name>  (458) 
EBSELEN

>  <Molecular Weight>  (458) 
274.18

>  <AlogP>  (458) 
None

>  <Smiles>  (458) 
O=c1c2ccccc2[se]n1-c1ccccc1

>  <Standard Type>  (458) 
Inhibition

>  <Standard Relation>  (458) 
'='

>  <Standard Units>  (458) 
%

>  <Standard Value>  (458) 
0.0

>  <Assay ChEMBL ID>  (458) 
CHEMBL1943940

>  <Assay Description>  (458) 
Inhibition of SYK at 1 uM

>  <BAO Format ID>  (458) 
BAO_0000357

>  <BAO Label>  (458) 
single protein format

>  <Assay Organism>  (458) 
None

>  <Target ChEMBL ID>  (458) 
CHEMBL2599

>  <Target Name>  (458) 
Tyrosine-protein kinase SYK

>  <Target Organism>  (458) 
Homo sapiens

>  <Target Type>  (458) 
SINGLE PROTEIN

>  <Document ChEMBL ID>  (458) 
CHEMBL1938284

>  <Source Description>  (458) 
Scientific Literature

>  <Document Journal>  (458) 
Eur J Med Chem

>  <Document Year>  (458) 
2012.0

>  <Active>  (458) 
0.0

>  <bits>  (458) 
<rdkit.DataStructs.cDataStructs.ExplicitBitVect object at 0x00000193F33E6030>

>  <Group>  (458) 
G2

$$$$

     RDKit          2D

 22 24  0  0  0  0  0  0  0  0999 V2000
   -6.7407   -9.9851    0.0000 N   0  0  0  0  0  0  0  0  0  0  0  0
   -6.4289   -8.5179    0.0000 S   0  0  0  0  0  0  0  0  0  0  0  0
   -7.8961   -8.2060    0.0000 O   0  0  0  0  0  0  0  0  0  0  0  0
   -4.9617   -8.8297    0.0000 O   0  0  0  0  0  0  0  0  0  0  0  0
   -6.1170   -7.0506    0.0000 C   0  0  0  0  0  0  0  0  0  0  0  0
   -7.2317   -6.0469    0.0000 C   0  0  0  0  0  0  0  0  0  0  0  0
   -6.9199   -4.5797    0.0000 C   0  0  0  0  0  0  0  0  0  0  0  0
   -5.4933   -4.1162    0.0000 C   0  0  0  0  0  0  0  0  0  0  0  0
   -4.3786   -5.1199    0.0000 C   0  0  0  0  0  0  0  0  0  0  0  0
   -2.9520   -4.6564    0.0000 N   0  0  0  0  0  0  0  0  0  0  0  0
   -2.6401   -3.1891    0.0000 C   0  0  0  0  0  0  0  0  0  0  0  0
   -1.2135   -2.7256    0.0000 C   0  0  0  0  0  0  0  0  0  0  0  0
   -0.0000   -3.6073    0.0000 C   0  0  0  0  0  0  0  0  0  0  0  0
    0.0000   -5.1073    0.0000 O   0  0  0  0  0  0  0  0  0  0  0  0
    1.2135   -2.7256    0.0000 N   0  0  0  0  0  0  0  0  0  0  0  0
    0.7500   -1.2990    0.0000 C   0  0  0  0  0  0  0  0  0  0  0  0
    1.5000    0.0000    0.0000 C   0  0  0  0  0  0  0  0  0  0  0  0
    0.7500    1.2990    0.0000 C   0  0  0  0  0  0  0  0  0  0  0  0
   -0.7500    1.2990    0.0000 C   0  0  0  0  0  0  0  0  0  0  0  0
   -1.5000    0.0000    0.0000 C   0  0  0  0  0  0  0  0  0  0  0  0
   -0.7500   -1.2990    0.0000 C   0  0  0  0  0  0  0  0  0  0  0  0
   -4.6904   -6.5871    0.0000 C   0  0  0  0  0  0  0  0  0  0  0  0
  1  2  1  0
  2  3  2  0
  2  4  2  0
  2  5  1  0
  5  6  2  0
  6  7  1  0
  7  8  2  0
  8  9  1  0
  9 10  1  0
 10 11  1  0
 11 12  2  0
 12 13  1  0
 13 14  2  0
 13 15  1  0
 15 16  1  0
 16 17  2  0
 17 18  1  0
 18 19  2  0
 19 20  1  0
 20 21  2  0
  9 22  2  0
 22  5  1  0
 21 12  1  0
 21 16  1  0
M  END
>  <Compound_ID>  (459) 
CHEMBL1794059

>  <Molecule Name>  (459) 
GW275616X

>  <Molecular Weight>  (459) 
315.35

>  <AlogP>  (459) 
1.74

>  <Smiles>  (459) 
NS(=O)(=O)c1cccc(N/C=C2\C(=O)Nc3ccccc32)c1

>  <Standard Type>  (459) 
Inhibition

>  <Standard Relation>  (459) 
'='

>  <Standard Units>  (459) 
%

>  <Standard Value>  (459) 
-6.93

>  <Assay ChEMBL ID>  (459) 
CHEMBL1962174

>  <Assay Description>  (459) 
GSK_PKIS: SYK mean inhibition at 0.1 uM [Nanosyn]

>  <BAO Format ID>  (459) 
BAO_0000357

>  <BAO Label>  (459) 
single protein format

>  <Assay Organism>  (459) 
None

>  <Target ChEMBL ID>  (459) 
CHEMBL2599

>  <Target Name>  (459) 
Tyrosine-protein kinase SYK

>  <Target Organism>  (459) 
Homo sapiens

>  <Target Type>  (459) 
SINGLE PROTEIN

>  <Document ChEMBL ID>  (459) 
CHEMBL1961873

>  <Source Description>  (459) 
GSK Published Kinase Inhibitor Set

>  <Document Journal>  (459) 
nan

>  <Document Year>  (459) 
nan

>  <Active>  (459) 
0.0

>  <bits>  (459) 
<rdkit.DataStructs.cDataStructs.ExplicitBitVect object at 0x00000193F33E6A40>

>  <Group>  (459) 
G2

$$$$

     RDKit          2D

 24 26  0  0  0  0  0  0  0  0999 V2000
    3.0000    0.0000    0.0000 C   0  0  0  0  0  0  0  0  0  0  0  0
    1.5000    0.0000    0.0000 C   0  0  0  0  0  0  0  0  0  0  0  0
    0.7500   -1.2990    0.0000 C   0  0  0  0  0  0  0  0  0  0  0  0
   -0.7500   -1.2990    0.0000 C   0  0  0  0  0  0  0  0  0  0  0  0
   -1.5000   -2.5981    0.0000 Cl  0  0  0  0  0  0  0  0  0  0  0  0
   -1.5000    0.0000    0.0000 C   0  0  0  0  0  0  0  0  0  0  0  0
   -0.7500    1.2990    0.0000 C   0  0  0  0  0  0  0  0  0  0  0  0
    0.7500    1.2990    0.0000 C   0  0  0  0  0  0  0  0  0  0  0  0
    1.2135    2.7256    0.0000 N   0  0  0  0  0  0  0  0  0  0  0  0
    0.0000    3.6073    0.0000 C   0  0  0  0  0  0  0  0  0  0  0  0
    0.0000    5.1073    0.0000 O   0  0  0  0  0  0  0  0  0  0  0  0
   -1.2135    2.7256    0.0000 C   0  0  0  0  0  0  0  0  0  0  0  0
   -2.6401    3.1891    0.0000 N   0  0  0  0  0  0  0  0  0  0  0  0
   -2.9520    4.6564    0.0000 N   0  0  0  0  0  0  0  0  0  0  0  0
   -4.3786    5.1199    0.0000 C   0  0  0  0  0  0  0  0  0  0  0  0
   -4.6904    6.5871    0.0000 C   0  0  0  0  0  0  0  0  0  0  0  0
   -6.1170    7.0506    0.0000 C   0  0  0  0  0  0  0  0  0  0  0  0
   -7.2317    6.0469    0.0000 C   0  0  0  0  0  0  0  0  0  0  0  0
   -8.6583    6.5105    0.0000 S   0  0  0  0  0  0  0  0  0  0  0  0
  -10.0849    6.9740    0.0000 N   0  0  0  0  0  0  0  0  0  0  0  0
   -8.1948    7.9371    0.0000 O   0  0  0  0  0  0  0  0  0  0  0  0
   -9.1218    5.0839    0.0000 O   0  0  0  0  0  0  0  0  0  0  0  0
   -6.9199    4.5797    0.0000 C   0  0  0  0  0  0  0  0  0  0  0  0
   -5.4933    4.1162    0.0000 C   0  0  0  0  0  0  0  0  0  0  0  0
  1  2  1  0
  2  3  2  0
  3  4  1  0
  4  5  1  0
  4  6  2  0
  6  7  1  0
  7  8  2  0
  8  9  1  0
  9 10  1  0
 10 11  2  0
 10 12  1  0
 12 13  2  3
 13 14  1  0
 14 15  1  0
 15 16  2  0
 16 17  1  0
 17 18  2  0
 18 19  1  0
 19 20  1  0
 19 21  2  0
 19 22  2  0
 18 23  1  0
 23 24  2  0
  8  2  1  0
 24 15  1  0
 12  7  1  0
M  END
>  <Compound_ID>  (460) 
CHEMBL1909397

>  <Molecule Name>  (460) 
GW279320X

>  <Molecular Weight>  (460) 
364.81

>  <AlogP>  (460) 
2.06

>  <Smiles>  (460) 
Cc1cc(Cl)cc2c1NC(=O)C2=NNc1ccc(S(N)(=O)=O)cc1

>  <Standard Type>  (460) 
Inhibition

>  <Standard Relation>  (460) 
'='

>  <Standard Units>  (460) 
%

>  <Standard Value>  (460) 
0.95

>  <Assay ChEMBL ID>  (460) 
CHEMBL1962175

>  <Assay Description>  (460) 
GSK_PKIS: SYK mean inhibition at 1 uM [Nanosyn]

>  <BAO Format ID>  (460) 
BAO_0000357

>  <BAO Label>  (460) 
single protein format

>  <Assay Organism>  (460) 
None

>  <Target ChEMBL ID>  (460) 
CHEMBL2599

>  <Target Name>  (460) 
Tyrosine-protein kinase SYK

>  <Target Organism>  (460) 
Homo sapiens

>  <Target Type>  (460) 
SINGLE PROTEIN

>  <Document ChEMBL ID>  (460) 
CHEMBL1961873

>  <Source Description>  (460) 
GSK Published Kinase Inhibitor Set

>  <Document Journal>  (460) 
nan

>  <Document Year>  (460) 
nan

>  <Active>  (460) 
0.0

>  <bits>  (460) 
<rdkit.DataStructs.cDataStructs.ExplicitBitVect object at 0x00000193F33E4EB0>

>  <Group>  (460) 
G2

$$$$

     RDKit          2D

 23 25  0  0  0  0  0  0  0  0999 V2000
    1.8478   -6.4639    0.0000 O   0  0  0  0  0  0  0  0  0  0  0  0
    2.0046   -4.9721    0.0000 C   0  0  0  0  0  0  0  0  0  0  0  0
    3.3037   -4.2221    0.0000 N   0  0  0  0  0  0  0  0  0  0  0  0
    2.9918   -2.7549    0.0000 C   0  0  0  0  0  0  0  0  0  0  0  0
    3.9955   -1.6402    0.0000 O   0  0  0  0  0  0  0  0  0  0  0  0
    1.5000   -2.5981    0.0000 C   0  0  0  0  0  0  0  0  0  0  0  0
    0.7500   -1.2990    0.0000 C   0  0  0  0  0  0  0  0  0  0  0  0
    1.5000    0.0000    0.0000 C   0  0  0  0  0  0  0  0  0  0  0  0
    0.7500    1.2990    0.0000 C   0  0  0  0  0  0  0  0  0  0  0  0
   -0.7500    1.2990    0.0000 C   0  0  0  0  0  0  0  0  0  0  0  0
   -1.5000    0.0000    0.0000 C   0  0  0  0  0  0  0  0  0  0  0  0
   -3.0000    0.0000    0.0000 Cl  0  0  0  0  0  0  0  0  0  0  0  0
   -0.7500   -1.2990    0.0000 C   0  0  0  0  0  0  0  0  0  0  0  0
    0.8899   -3.9684    0.0000 C   0  0  0  0  0  0  0  0  0  0  0  0
   -0.5773   -4.2803    0.0000 N   0  0  0  0  0  0  0  0  0  0  0  0
   -1.0409   -5.7068    0.0000 C   0  0  0  0  0  0  0  0  0  0  0  0
   -2.5081   -6.0187    0.0000 C   0  0  0  0  0  0  0  0  0  0  0  0
   -2.9716   -7.4453    0.0000 C   0  0  0  0  0  0  0  0  0  0  0  0
   -1.9679   -8.5600    0.0000 C   0  0  0  0  0  0  0  0  0  0  0  0
   -2.4314   -9.9866    0.0000 O   0  0  0  0  0  0  0  0  0  0  0  0
   -0.5007   -8.2481    0.0000 C   0  0  0  0  0  0  0  0  0  0  0  0
    0.5030   -9.3629    0.0000 Cl  0  0  0  0  0  0  0  0  0  0  0  0
   -0.0372   -6.8216    0.0000 C   0  0  0  0  0  0  0  0  0  0  0  0
  1  2  2  0
  2  3  1  0
  3  4  1  0
  4  5  2  0
  4  6  1  0
  6  7  1  0
  7  8  2  0
  8  9  1  0
  9 10  2  0
 10 11  1  0
 11 12  1  0
 11 13  2  0
  6 14  2  0
 14 15  1  0
 15 16  1  0
 16 17  2  0
 17 18  1  0
 18 19  2  0
 19 20  1  0
 19 21  1  0
 21 22  1  0
 21 23  2  0
 14  2  1  0
 23 16  1  0
 13  7  1  0
M  END
>  <Compound_ID>  (461) 
CHEMBL160333

>  <Molecule Name>  (461) 
nan

>  <Molecular Weight>  (461) 
349.17

>  <AlogP>  (461) 
3.18

>  <Smiles>  (461) 
O=C1NC(=O)C(c2cccc(Cl)c2)=C1Nc1ccc(O)c(Cl)c1

>  <Standard Type>  (461) 
Inhibition

>  <Standard Relation>  (461) 
'='

>  <Standard Units>  (461) 
%

>  <Standard Value>  (461) 
1.76

>  <Assay ChEMBL ID>  (461) 
CHEMBL1962174

>  <Assay Description>  (461) 
GSK_PKIS: SYK mean inhibition at 0.1 uM [Nanosyn]

>  <BAO Format ID>  (461) 
BAO_0000357

>  <BAO Label>  (461) 
single protein format

>  <Assay Organism>  (461) 
None

>  <Target ChEMBL ID>  (461) 
CHEMBL2599

>  <Target Name>  (461) 
Tyrosine-protein kinase SYK

>  <Target Organism>  (461) 
Homo sapiens

>  <Target Type>  (461) 
SINGLE PROTEIN

>  <Document ChEMBL ID>  (461) 
CHEMBL1961873

>  <Source Description>  (461) 
GSK Published Kinase Inhibitor Set

>  <Document Journal>  (461) 
nan

>  <Document Year>  (461) 
nan

>  <Active>  (461) 
0.0

>  <bits>  (461) 
<rdkit.DataStructs.cDataStructs.ExplicitBitVect object at 0x00000193F33E66C0>

>  <Group>  (461) 
G2

$$$$

     RDKit          2D

 31 35  0  0  0  0  0  0  0  0999 V2000
    1.5000    0.0000    0.0000 C   0  0  0  0  0  0  0  0  0  0  0  0
    0.7500   -1.2990    0.0000 C   0  0  0  0  0  0  0  0  0  0  0  0
   -0.7500   -1.2990    0.0000 C   0  0  0  0  0  0  0  0  0  0  0  0
   -1.5000    0.0000    0.0000 C   0  0  0  0  0  0  0  0  0  0  0  0
   -3.0000    0.0000    0.0000 C   0  0  0  0  0  0  0  0  0  0  0  0
   -3.8817   -1.2135    0.0000 N   0  0  0  0  0  0  0  0  0  0  0  0
   -5.3083   -0.7500    0.0000 N   0  0  0  0  0  0  0  0  0  0  0  0
   -5.3083    0.7500    0.0000 C   0  0  0  0  0  0  0  0  0  0  0  0
   -3.8817    1.2135    0.0000 C   0  0  0  0  0  0  0  0  0  0  0  0
   -3.4182    2.6401    0.0000 C   0  0  0  0  0  0  0  0  0  0  0  0
   -1.9509    2.9520    0.0000 C   0  0  0  0  0  0  0  0  0  0  0  0
   -1.4874    4.3786    0.0000 C   0  0  0  0  0  0  0  0  0  0  0  0
   -2.4911    5.4933    0.0000 N   0  0  0  0  0  0  0  0  0  0  0  0
   -3.9583    5.1814    0.0000 C   0  0  0  0  0  0  0  0  0  0  0  0
   -4.9620    6.2961    0.0000 C   0  0  0  0  0  0  0  0  0  0  0  0
   -4.4985    7.7227    0.0000 C   0  0  0  0  0  0  0  0  0  0  0  0
   -5.5022    8.8374    0.0000 C   0  0  0  0  0  0  0  0  0  0  0  0
   -6.9694    8.5256    0.0000 C   0  0  0  0  0  0  0  0  0  0  0  0
   -7.9731    9.6403    0.0000 O   0  0  0  0  0  0  0  0  0  0  0  0
   -7.5096   11.0669    0.0000 C   0  0  0  0  0  0  0  0  0  0  0  0
   -8.5133   12.1816    0.0000 C   0  0  0  0  0  0  0  0  0  0  0  0
   -8.0498   13.6082    0.0000 N   0  0  0  0  0  0  0  0  0  0  0  0
   -8.9314   14.8217    0.0000 C   0  0  0  0  0  0  0  0  0  0  0  0
   -8.0498   16.0352    0.0000 C   0  0  0  0  0  0  0  0  0  0  0  0
   -6.6232   15.5717    0.0000 N   0  0  0  0  0  0  0  0  0  0  0  0
   -6.6232   14.0717    0.0000 C   0  0  0  0  0  0  0  0  0  0  0  0
   -7.4329    7.0990    0.0000 C   0  0  0  0  0  0  0  0  0  0  0  0
   -6.4292    5.9843    0.0000 C   0  0  0  0  0  0  0  0  0  0  0  0
   -4.4218    3.7548    0.0000 C   0  0  0  0  0  0  0  0  0  0  0  0
   -0.7500    1.2990    0.0000 N   0  0  0  0  0  0  0  0  0  0  0  0
    0.7500    1.2990    0.0000 C   0  0  0  0  0  0  0  0  0  0  0  0
  1  2  2  0
  2  3  1  0
  3  4  2  0
  4  5  1  0
  5  6  2  0
  6  7  1  0
  7  8  1  0
  8  9  2  0
  9 10  1  0
 10 11  2  0
 11 12  1  0
 12 13  2  0
 13 14  1  0
 14 15  1  0
 15 16  2  0
 16 17  1  0
 17 18  2  0
 18 19  1  0
 19 20  1  0
 20 21  1  0
 21 22  1  0
 22 23  1  0
 23 24  2  0
 24 25  1  0
 25 26  2  0
 18 27  1  0
 27 28  2  0
 14 29  2  0
  4 30  1  0
 30 31  2  0
 31  1  1  0
  9  5  1  0
 29 10  1  0
 28 15  1  0
 26 22  1  0
M  END
>  <Compound_ID>  (462) 
CHEMBL208437

>  <Molecule Name>  (462) 
GW711782X

>  <Molecular Weight>  (462) 
408.47

>  <AlogP>  (462) 
4.48

>  <Smiles>  (462) 
c1ccc(-c2n[nH]cc2-c2ccnc(-c3ccc(OCCn4ccnc4)cc3)c2)nc1

>  <Standard Type>  (462) 
Inhibition

>  <Standard Relation>  (462) 
'='

>  <Standard Units>  (462) 
%

>  <Standard Value>  (462) 
0.33

>  <Assay ChEMBL ID>  (462) 
CHEMBL1962175

>  <Assay Description>  (462) 
GSK_PKIS: SYK mean inhibition at 1 uM [Nanosyn]

>  <BAO Format ID>  (462) 
BAO_0000357

>  <BAO Label>  (462) 
single protein format

>  <Assay Organism>  (462) 
None

>  <Target ChEMBL ID>  (462) 
CHEMBL2599

>  <Target Name>  (462) 
Tyrosine-protein kinase SYK

>  <Target Organism>  (462) 
Homo sapiens

>  <Target Type>  (462) 
SINGLE PROTEIN

>  <Document ChEMBL ID>  (462) 
CHEMBL1961873

>  <Source Description>  (462) 
GSK Published Kinase Inhibitor Set

>  <Document Journal>  (462) 
nan

>  <Document Year>  (462) 
nan

>  <Active>  (462) 
0.0

>  <bits>  (462) 
<rdkit.DataStructs.cDataStructs.ExplicitBitVect object at 0x00000193F33E4BA0>

>  <Group>  (462) 
G2

$$$$

     RDKit          2D

 24 27  0  0  0  0  0  0  0  0999 V2000
   -8.0346   -3.5760    0.0000 C   0  0  0  0  0  0  0  0  0  0  0  0
   -6.9199   -4.5797    0.0000 O   0  0  0  0  0  0  0  0  0  0  0  0
   -5.4933   -4.1162    0.0000 C   0  0  0  0  0  0  0  0  0  0  0  0
   -5.1814   -2.6490    0.0000 C   0  0  0  0  0  0  0  0  0  0  0  0
   -3.7548   -2.1855    0.0000 C   0  0  0  0  0  0  0  0  0  0  0  0
   -2.6401   -3.1891    0.0000 C   0  0  0  0  0  0  0  0  0  0  0  0
   -1.2135   -2.7256    0.0000 C   0  0  0  0  0  0  0  0  0  0  0  0
   -0.0000   -3.6073    0.0000 N   0  0  0  0  0  0  0  0  0  0  0  0
    1.2135   -2.7256    0.0000 N   0  0  0  0  0  0  0  0  0  0  0  0
    2.6401   -3.1891    0.0000 C   0  0  0  0  0  0  0  0  0  0  0  0
    3.3211   -4.5257    0.0000 C   0  0  0  0  0  0  0  0  0  0  0  0
    4.6576   -3.8447    0.0000 C   0  0  0  0  0  0  0  0  0  0  0  0
    3.9766   -2.5082    0.0000 C   0  0  0  0  0  0  0  0  0  0  0  0
    0.7500   -1.2990    0.0000 C   0  0  0  0  0  0  0  0  0  0  0  0
    1.5000    0.0000    0.0000 N   0  0  0  0  0  0  0  0  0  0  0  0
    0.7500    1.2990    0.0000 C   0  0  0  0  0  0  0  0  0  0  0  0
   -0.7500    1.2990    0.0000 N   0  0  0  0  0  0  0  0  0  0  0  0
   -1.5000    0.0000    0.0000 C   0  0  0  0  0  0  0  0  0  0  0  0
   -3.0000    0.0000    0.0000 N   0  0  0  0  0  0  0  0  0  0  0  0
   -0.7500   -1.2990    0.0000 C   0  0  0  0  0  0  0  0  0  0  0  0
   -2.9520   -4.6564    0.0000 C   0  0  0  0  0  0  0  0  0  0  0  0
   -4.3786   -5.1199    0.0000 C   0  0  0  0  0  0  0  0  0  0  0  0
   -4.6904   -6.5871    0.0000 O   0  0  0  0  0  0  0  0  0  0  0  0
   -3.5757   -7.5908    0.0000 C   0  0  0  0  0  0  0  0  0  0  0  0
  1  2  1  0
  2  3  1  0
  3  4  2  0
  4  5  1  0
  5  6  2  0
  6  7  1  0
  7  8  2  0
  8  9  1  0
  9 10  1  0
 10 11  1  0
 11 12  1  0
 12 13  1  0
  9 14  1  0
 14 15  2  0
 15 16  1  0
 16 17  2  0
 17 18  1  0
 18 19  1  0
 18 20  2  0
  6 21  1  0
 21 22  2  0
 22 23  1  0
 23 24  1  0
 22  3  1  0
 20  7  1  0
 13 10  1  0
 20 14  1  0
M  END
>  <Compound_ID>  (463) 
CHEMBL1233881

>  <Molecule Name>  (463) 
nan

>  <Molecular Weight>  (463) 
325.37

>  <AlogP>  (463) 
2.82

>  <Smiles>  (463) 
COc1ccc(-c2nn(C3CCC3)c3ncnc(N)c23)cc1OC

>  <Standard Type>  (463) 
Inhibition

>  <Standard Relation>  (463) 
'='

>  <Standard Units>  (463) 
%

>  <Standard Value>  (463) 
3.0

>  <Assay ChEMBL ID>  (463) 
CHEMBL1244304

>  <Assay Description>  (463) 
Inhibition of SYK at 1 uM after 60 mins by FRET assay in presence of 10 uM ATP

>  <BAO Format ID>  (463) 
BAO_0000357

>  <BAO Label>  (463) 
single protein format

>  <Assay Organism>  (463) 
None

>  <Target ChEMBL ID>  (463) 
CHEMBL2599

>  <Target Name>  (463) 
Tyrosine-protein kinase SYK

>  <Target Organism>  (463) 
Homo sapiens

>  <Target Type>  (463) 
SINGLE PROTEIN

>  <Document ChEMBL ID>  (463) 
CHEMBL1240340

>  <Source Description>  (463) 
Scientific Literature

>  <Document Journal>  (463) 
Nat Chem Biol

>  <Document Year>  (463) 
2008.0

>  <Active>  (463) 
0.0

>  <bits>  (463) 
<rdkit.DataStructs.cDataStructs.ExplicitBitVect object at 0x00000193F33E54D0>

>  <Group>  (463) 
G2

$$$$

     RDKit          2D

 33 36  0  0  0  0  0  0  0  0999 V2000
  -10.0849   -6.9740    0.0000 N   0  0  0  0  0  0  0  0  0  0  0  0
   -8.6583   -6.5105    0.0000 S   0  0  0  0  0  0  0  0  0  0  0  0
   -9.1218   -5.0839    0.0000 O   0  0  0  0  0  0  0  0  0  0  0  0
   -8.1948   -7.9371    0.0000 O   0  0  0  0  0  0  0  0  0  0  0  0
   -7.2317   -6.0469    0.0000 C   0  0  0  0  0  0  0  0  0  0  0  0
   -6.9199   -4.5797    0.0000 C   0  0  0  0  0  0  0  0  0  0  0  0
   -5.4933   -4.1162    0.0000 C   0  0  0  0  0  0  0  0  0  0  0  0
   -4.3786   -5.1199    0.0000 C   0  0  0  0  0  0  0  0  0  0  0  0
   -2.9520   -4.6564    0.0000 N   0  0  0  0  0  0  0  0  0  0  0  0
   -2.6401   -3.1891    0.0000 N   0  0  0  0  0  0  0  0  0  0  0  0
   -1.2135   -2.7256    0.0000 C   0  0  0  0  0  0  0  0  0  0  0  0
   -0.0000   -3.6073    0.0000 C   0  0  0  0  0  0  0  0  0  0  0  0
    0.0000   -5.1073    0.0000 O   0  0  0  0  0  0  0  0  0  0  0  0
    1.2135   -2.7256    0.0000 N   0  0  0  0  0  0  0  0  0  0  0  0
    0.7500   -1.2990    0.0000 C   0  0  0  0  0  0  0  0  0  0  0  0
    1.5000    0.0000    0.0000 C   0  0  0  0  0  0  0  0  0  0  0  0
    0.7500    1.2990    0.0000 C   0  0  0  0  0  0  0  0  0  0  0  0
   -0.7500    1.2990    0.0000 C   0  0  0  0  0  0  0  0  0  0  0  0
   -1.5000    2.5981    0.0000 C   0  0  0  0  0  0  0  0  0  0  0  0
   -3.0000    2.5981    0.0000 O   0  0  0  0  0  0  0  0  0  0  0  0
   -0.7500    3.8971    0.0000 N   0  0  0  0  0  0  0  0  0  0  0  0
   -1.5000    5.1962    0.0000 C   0  0  0  0  0  0  0  0  0  0  0  0
   -0.7500    6.4952    0.0000 C   0  0  0  0  0  0  0  0  0  0  0  0
   -1.5000    7.7942    0.0000 C   0  0  0  0  0  0  0  0  0  0  0  0
   -0.7500    9.0933    0.0000 N   0  0  0  0  0  0  0  0  0  0  0  0
   -1.3601   10.4636    0.0000 C   0  0  0  0  0  0  0  0  0  0  0  0
   -0.2454   11.4673    0.0000 C   0  0  0  0  0  0  0  0  0  0  0  0
    1.0537   10.7173    0.0000 N   0  0  0  0  0  0  0  0  0  0  0  0
    0.7418    9.2501    0.0000 C   0  0  0  0  0  0  0  0  0  0  0  0
   -1.5000    0.0000    0.0000 C   0  0  0  0  0  0  0  0  0  0  0  0
   -0.7500   -1.2990    0.0000 C   0  0  0  0  0  0  0  0  0  0  0  0
   -4.6904   -6.5871    0.0000 C   0  0  0  0  0  0  0  0  0  0  0  0
   -6.1170   -7.0506    0.0000 C   0  0  0  0  0  0  0  0  0  0  0  0
  1  2  1  0
  2  3  2  0
  2  4  2  0
  2  5  1  0
  5  6  2  0
  6  7  1  0
  7  8  2  0
  8  9  1  0
  9 10  1  0
 10 11  2  0
 11 12  1  0
 12 13  2  0
 12 14  1  0
 14 15  1  0
 15 16  2  0
 16 17  1  0
 17 18  2  0
 18 19  1  0
 19 20  2  0
 19 21  1  0
 21 22  1  0
 22 23  1  0
 23 24  1  0
 24 25  1  0
 25 26  1  0
 26 27  2  0
 27 28  1  0
 28 29  2  0
 18 30  1  0
 30 31  2  0
  8 32  1  0
 32 33  2  0
 33  5  1  0
 31 11  1  0
 31 15  1  0
 29 25  1  0
M  END
>  <Compound_ID>  (464) 
CHEMBL272026

>  <Molecule Name>  (464) 
GW290597X

>  <Molecular Weight>  (464) 
467.51

>  <AlogP>  (464) 
1.12

>  <Smiles>  (464) 
NS(=O)(=O)c1ccc(N/N=C2\C(=O)Nc3ccc(C(=O)NCCCn4ccnc4)cc32)cc1

>  <Standard Type>  (464) 
Inhibition

>  <Standard Relation>  (464) 
'='

>  <Standard Units>  (464) 
%

>  <Standard Value>  (464) 
-1.66

>  <Assay ChEMBL ID>  (464) 
CHEMBL1962175

>  <Assay Description>  (464) 
GSK_PKIS: SYK mean inhibition at 1 uM [Nanosyn]

>  <BAO Format ID>  (464) 
BAO_0000357

>  <BAO Label>  (464) 
single protein format

>  <Assay Organism>  (464) 
None

>  <Target ChEMBL ID>  (464) 
CHEMBL2599

>  <Target Name>  (464) 
Tyrosine-protein kinase SYK

>  <Target Organism>  (464) 
Homo sapiens

>  <Target Type>  (464) 
SINGLE PROTEIN

>  <Document ChEMBL ID>  (464) 
CHEMBL1961873

>  <Source Description>  (464) 
GSK Published Kinase Inhibitor Set

>  <Document Journal>  (464) 
nan

>  <Document Year>  (464) 
nan

>  <Active>  (464) 
0.0

>  <bits>  (464) 
<rdkit.DataStructs.cDataStructs.ExplicitBitVect object at 0x00000193F33E5700>

>  <Group>  (464) 
G2

$$$$

     RDKit          2D

 31 34  0  0  0  0  0  0  0  0999 V2000
   -8.1673  -10.4486    0.0000 O   0  0  0  0  0  0  0  0  0  0  0  0
   -7.8555   -8.9814    0.0000 C   0  0  0  0  0  0  0  0  0  0  0  0
   -6.4289   -8.5179    0.0000 C   0  0  0  0  0  0  0  0  0  0  0  0
   -6.1170   -7.0506    0.0000 C   0  0  0  0  0  0  0  0  0  0  0  0
   -4.6904   -6.5871    0.0000 N   0  0  0  0  0  0  0  0  0  0  0  0
   -4.3786   -5.1199    0.0000 C   0  0  0  0  0  0  0  0  0  0  0  0
   -5.4933   -4.1162    0.0000 N   0  0  0  0  0  0  0  0  0  0  0  0
   -5.1814   -2.6490    0.0000 C   0  0  0  0  0  0  0  0  0  0  0  0
   -3.7548   -2.1855    0.0000 C   0  0  0  0  0  0  0  0  0  0  0  0
   -2.6401   -3.1891    0.0000 C   0  0  0  0  0  0  0  0  0  0  0  0
   -1.2135   -2.7256    0.0000 C   0  0  0  0  0  0  0  0  0  0  0  0
   -0.0000   -3.6073    0.0000 C   0  0  0  0  0  0  0  0  0  0  0  0
   -0.0000   -5.1073    0.0000 C   0  0  0  0  0  0  0  0  0  0  0  0
   -1.2990   -5.8573    0.0000 C   0  0  0  0  0  0  0  0  0  0  0  0
   -1.2990   -7.3573    0.0000 C   0  0  0  0  0  0  0  0  0  0  0  0
   -0.0000   -8.1073    0.0000 C   0  0  0  0  0  0  0  0  0  0  0  0
    0.0000   -9.6073    0.0000 F   0  0  0  0  0  0  0  0  0  0  0  0
    1.2990   -7.3573    0.0000 C   0  0  0  0  0  0  0  0  0  0  0  0
    1.2990   -5.8573    0.0000 C   0  0  0  0  0  0  0  0  0  0  0  0
    1.2135   -2.7256    0.0000 N   0  0  0  0  0  0  0  0  0  0  0  0
    0.7500   -1.2990    0.0000 N   0  0  0  0  0  0  0  0  0  0  0  0
    1.5000    0.0000    0.0000 C   0  0  0  0  0  0  0  0  0  0  0  0
    0.7500    1.2990    0.0000 C   0  0  0  0  0  0  0  0  0  0  0  0
    1.5000    2.5981    0.0000 C   0  0  0  0  0  0  0  0  0  0  0  0
    2.2500    3.8971    0.0000 F   0  0  0  0  0  0  0  0  0  0  0  0
    2.7990    1.8481    0.0000 F   0  0  0  0  0  0  0  0  0  0  0  0
    0.2010    3.3481    0.0000 F   0  0  0  0  0  0  0  0  0  0  0  0
   -0.7500    1.2990    0.0000 C   0  0  0  0  0  0  0  0  0  0  0  0
   -1.5000    0.0000    0.0000 C   0  0  0  0  0  0  0  0  0  0  0  0
   -0.7500   -1.2990    0.0000 C   0  0  0  0  0  0  0  0  0  0  0  0
   -2.9520   -4.6564    0.0000 N   0  0  0  0  0  0  0  0  0  0  0  0
  1  2  1  0
  2  3  1  0
  3  4  1  0
  4  5  1  0
  5  6  1  0
  6  7  2  0
  7  8  1  0
  8  9  2  0
  9 10  1  0
 10 11  1  0
 11 12  1  0
 12 13  1  0
 13 14  2  0
 14 15  1  0
 15 16  2  0
 16 17  1  0
 16 18  1  0
 18 19  2  0
 12 20  2  0
 20 21  1  0
 21 22  1  0
 22 23  2  0
 23 24  1  0
 24 25  1  0
 24 26  1  0
 24 27  1  0
 23 28  1  0
 28 29  2  0
 29 30  1  0
 10 31  2  0
 31  6  1  0
 30 11  2  0
 19 13  1  0
 30 21  1  0
M  END
>  <Compound_ID>  (465) 
CHEMBL1909403

>  <Molecule Name>  (465) 
GW569293E

>  <Molecular Weight>  (465) 
547.47

>  <AlogP>  (465) 
4.41

>  <Smiles>  (465) 
OCCCNc1nccc(-c2c(-c3ccc(F)cc3)nn3cc(C(F)(F)F)ccc23)n1

>  <Standard Type>  (465) 
Inhibition

>  <Standard Relation>  (465) 
'='

>  <Standard Units>  (465) 
%

>  <Standard Value>  (465) 
0.36

>  <Assay ChEMBL ID>  (465) 
CHEMBL1962175

>  <Assay Description>  (465) 
GSK_PKIS: SYK mean inhibition at 1 uM [Nanosyn]

>  <BAO Format ID>  (465) 
BAO_0000357

>  <BAO Label>  (465) 
single protein format

>  <Assay Organism>  (465) 
None

>  <Target ChEMBL ID>  (465) 
CHEMBL2599

>  <Target Name>  (465) 
Tyrosine-protein kinase SYK

>  <Target Organism>  (465) 
Homo sapiens

>  <Target Type>  (465) 
SINGLE PROTEIN

>  <Document ChEMBL ID>  (465) 
CHEMBL1961873

>  <Source Description>  (465) 
GSK Published Kinase Inhibitor Set

>  <Document Journal>  (465) 
nan

>  <Document Year>  (465) 
nan

>  <Active>  (465) 
0.0

>  <bits>  (465) 
<rdkit.DataStructs.cDataStructs.ExplicitBitVect object at 0x00000193F33E77D0>

>  <Group>  (465) 
G2

$$$$

     RDKit          2D

 29 32  0  0  0  0  0  0  0  0999 V2000
    4.6740   -4.8322    0.0000 O   0  0  0  0  0  0  0  0  0  0  0  0
    3.3037   -4.2221    0.0000 C   0  0  0  0  0  0  0  0  0  0  0  0
    2.9918   -2.7549    0.0000 N   0  0  0  0  0  0  0  0  0  0  0  0
    1.5000   -2.5981    0.0000 N   0  0  0  0  0  0  0  0  0  0  0  0
    0.7500   -1.2990    0.0000 C   0  0  0  0  0  0  0  0  0  0  0  0
    1.5000    0.0000    0.0000 C   0  0  0  0  0  0  0  0  0  0  0  0
    0.7500    1.2990    0.0000 C   0  0  0  0  0  0  0  0  0  0  0  0
   -0.7500    1.2990    0.0000 C   0  0  0  0  0  0  0  0  0  0  0  0
   -1.5000    0.0000    0.0000 C   0  0  0  0  0  0  0  0  0  0  0  0
   -0.7500   -1.2990    0.0000 C   0  0  0  0  0  0  0  0  0  0  0  0
    0.8899   -3.9684    0.0000 C   0  0  0  0  0  0  0  0  0  0  0  0
   -0.5773   -4.2803    0.0000 O   0  0  0  0  0  0  0  0  0  0  0  0
    2.0046   -4.9721    0.0000 C   0  0  0  0  0  0  0  0  0  0  0  0
    1.8478   -6.4639    0.0000 C   0  0  0  0  0  0  0  0  0  0  0  0
    0.4775   -7.0740    0.0000 C   0  0  0  0  0  0  0  0  0  0  0  0
   -0.7360   -6.1923    0.0000 C   0  0  0  0  0  0  0  0  0  0  0  0
   -2.1063   -6.8024    0.0000 C   0  0  0  0  0  0  0  0  0  0  0  0
   -3.3199   -5.9207    0.0000 Cl  0  0  0  0  0  0  0  0  0  0  0  0
   -2.2631   -8.2942    0.0000 C   0  0  0  0  0  0  0  0  0  0  0  0
   -1.0496   -9.1759    0.0000 C   0  0  0  0  0  0  0  0  0  0  0  0
    0.3207   -8.5658    0.0000 C   0  0  0  0  0  0  0  0  0  0  0  0
    1.5342   -9.4474    0.0000 O   0  0  0  0  0  0  0  0  0  0  0  0
    1.3774  -10.9392    0.0000 C   0  0  0  0  0  0  0  0  0  0  0  0
    2.5910  -11.8209    0.0000 C   0  0  0  0  0  0  0  0  0  0  0  0
    2.4342  -13.3127    0.0000 C   0  0  0  0  0  0  0  0  0  0  0  0
    3.6477  -14.1944    0.0000 C   0  0  0  0  0  0  0  0  0  0  0  0
    5.0180  -13.5843    0.0000 C   0  0  0  0  0  0  0  0  0  0  0  0
    5.1748  -12.0925    0.0000 C   0  0  0  0  0  0  0  0  0  0  0  0
    3.9613  -11.2108    0.0000 C   0  0  0  0  0  0  0  0  0  0  0  0
  1  2  2  0
  2  3  1  0
  3  4  1  0
  4  5  1  0
  5  6  2  0
  6  7  1  0
  7  8  2  0
  8  9  1  0
  9 10  2  0
  4 11  1  0
 11 12  2  0
 11 13  1  0
 13 14  2  0
 14 15  1  0
 15 16  2  0
 16 17  1  0
 17 18  1  0
 17 19  2  0
 19 20  1  0
 20 21  2  0
 21 22  1  0
 22 23  1  0
 23 24  1  0
 24 25  2  0
 25 26  1  0
 26 27  2  0
 27 28  1  0
 28 29  2  0
 13  2  1  0
 21 15  1  0
 29 24  1  0
 10  5  1  0
M  END
>  <Compound_ID>  (466) 
CHEMBL3115323

>  <Molecule Name>  (466) 
nan

>  <Molecular Weight>  (466) 
404.85

>  <AlogP>  (466) 
4.38

>  <Smiles>  (466) 
O=C1NN(c2ccccc2)C(=O)/C1=C\c1cc(Cl)ccc1OCc1ccccc1

>  <Standard Type>  (466) 
Inhibition

>  <Standard Relation>  (466) 
'='

>  <Standard Units>  (466) 
%

>  <Standard Value>  (466) 
16.0

>  <Assay ChEMBL ID>  (466) 
CHEMBL3119789

>  <Assay Description>  (466) 
Inhibition of SYK (unknown origin) at 20 uM by radioactive ATP method

>  <BAO Format ID>  (466) 
BAO_0000357

>  <BAO Label>  (466) 
single protein format

>  <Assay Organism>  (466) 
Homo sapiens

>  <Target ChEMBL ID>  (466) 
CHEMBL2599

>  <Target Name>  (466) 
Tyrosine-protein kinase SYK

>  <Target Organism>  (466) 
Homo sapiens

>  <Target Type>  (466) 
SINGLE PROTEIN

>  <Document ChEMBL ID>  (466) 
CHEMBL3112544

>  <Source Description>  (466) 
Scientific Literature

>  <Document Journal>  (466) 
Bioorg Med Chem Lett

>  <Document Year>  (466) 
2013.0

>  <Active>  (466) 
0.0

>  <bits>  (466) 
<rdkit.DataStructs.cDataStructs.ExplicitBitVect object at 0x00000193F33E4350>

>  <Group>  (466) 
G2

$$$$

     RDKit          2D

 40 43  0  0  0  0  0  0  0  0999 V2000
    0.7500   -3.8971    0.0000 C   0  0  0  0  0  0  0  0  0  0  0  0
    1.5000   -2.5981    0.0000 N   0  0  0  0  0  0  0  0  0  0  0  0
    0.7500   -1.2990    0.0000 C   0  0  0  0  0  0  0  0  0  0  0  0
    1.5000    0.0000    0.0000 C   0  0  0  0  0  0  0  0  0  0  0  0
    0.7500    1.2990    0.0000 C   0  0  0  0  0  0  0  0  0  0  0  0
   -0.7500    1.2990    0.0000 C   0  0  0  0  0  0  0  0  0  0  0  0
   -1.5000    2.5981    0.0000 N   0  0  0  0  0  0  0  0  0  0  0  0
   -0.7500    3.8971    0.0000 C   0  0  0  0  0  0  0  0  0  0  0  0
    0.7500    3.8971    0.0000 O   0  0  0  0  0  0  0  0  0  0  0  0
   -1.5000    5.1962    0.0000 N   0  0  0  0  0  0  0  0  0  0  0  0
   -0.7500    6.4952    0.0000 C   0  0  0  0  0  0  0  0  0  0  0  0
    0.7500    6.4952    0.0000 C   0  0  0  0  0  0  0  0  0  0  0  0
    1.5000    7.7942    0.0000 C   0  0  0  0  0  0  0  0  0  0  0  0
    0.7500    9.0933    0.0000 C   0  0  0  0  0  0  0  0  0  0  0  0
    1.5000   10.3923    0.0000 O   0  0  0  0  0  0  0  0  0  0  0  0
    3.0000   10.3923    0.0000 C   0  0  0  0  0  0  0  0  0  0  0  0
    4.5000   10.3923    0.0000 F   0  0  0  0  0  0  0  0  0  0  0  0
    3.0000   11.8923    0.0000 F   0  0  0  0  0  0  0  0  0  0  0  0
    3.0000    8.8923    0.0000 F   0  0  0  0  0  0  0  0  0  0  0  0
   -0.7500    9.0933    0.0000 C   0  0  0  0  0  0  0  0  0  0  0  0
   -1.5000    7.7942    0.0000 C   0  0  0  0  0  0  0  0  0  0  0  0
   -1.5000    0.0000    0.0000 C   0  0  0  0  0  0  0  0  0  0  0  0
   -0.7500   -1.2990    0.0000 C   0  0  0  0  0  0  0  0  0  0  0  0
    3.0000   -2.5981    0.0000 C   0  0  0  0  0  0  0  0  0  0  0  0
    3.7500   -3.8971    0.0000 C   0  0  0  0  0  0  0  0  0  0  0  0
    5.2500   -3.8971    0.0000 C   0  0  0  0  0  0  0  0  0  0  0  0
    6.0000   -2.5981    0.0000 N   0  0  0  0  0  0  0  0  0  0  0  0
    5.2500   -1.2990    0.0000 C   0  0  0  0  0  0  0  0  0  0  0  0
    6.0000   -0.0000    0.0000 N   0  0  0  0  0  0  0  0  0  0  0  0
    7.5000   -0.0000    0.0000 C   0  0  0  0  0  0  0  0  0  0  0  0
    8.2500   -1.2990    0.0000 C   0  0  0  0  0  0  0  0  0  0  0  0
    9.7500   -1.2990    0.0000 C   0  0  0  0  0  0  0  0  0  0  0  0
   10.5000   -0.0000    0.0000 C   0  0  0  0  0  0  0  0  0  0  0  0
    9.7500    1.2990    0.0000 C   0  0  0  0  0  0  0  0  0  0  0  0
   10.5000    2.5981    0.0000 S   0  0  0  0  0  0  0  0  0  0  0  0
   11.2500    3.8971    0.0000 N   0  0  0  0  0  0  0  0  0  0  0  0
   11.7990    1.8481    0.0000 O   0  0  0  0  0  0  0  0  0  0  0  0
    9.2010    3.3481    0.0000 O   0  0  0  0  0  0  0  0  0  0  0  0
    8.2500    1.2990    0.0000 C   0  0  0  0  0  0  0  0  0  0  0  0
    3.7500   -1.2990    0.0000 N   0  0  0  0  0  0  0  0  0  0  0  0
  1  2  1  0
  2  3  1  0
  3  4  2  0
  4  5  1  0
  5  6  2  0
  6  7  1  0
  7  8  1  0
  8  9  2  0
  8 10  1  0
 10 11  1  0
 11 12  2  0
 12 13  1  0
 13 14  2  0
 14 15  1  0
 15 16  1  0
 16 17  1  0
 16 18  1  0
 16 19  1  0
 14 20  1  0
 20 21  2  0
  6 22  1  0
 22 23  2  0
  2 24  1  0
 24 25  2  0
 25 26  1  0
 26 27  2  0
 27 28  1  0
 28 29  1  0
 29 30  1  0
 30 31  2  0
 31 32  1  0
 32 33  2  0
 33 34  1  0
 34 35  1  0
 35 36  1  0
 35 37  2  0
 35 38  2  0
 34 39  2  0
 28 40  2  0
 23  3  1  0
 40 24  1  0
 21 11  1  0
 39 30  1  0
M  END
>  <Compound_ID>  (467) 
CHEMBL188381

>  <Molecule Name>  (467) 
GW806742X

>  <Molecular Weight>  (467) 
573.56

>  <AlogP>  (467) 
5.18

>  <Smiles>  (467) 
CN(c1ccc(NC(=O)Nc2ccc(OC(F)(F)F)cc2)cc1)c1ccnc(Nc2cccc(S(N)(=O)=O)c2)n1

>  <Standard Type>  (467) 
Inhibition

>  <Standard Relation>  (467) 
'='

>  <Standard Units>  (467) 
%

>  <Standard Value>  (467) 
-15.2

>  <Assay ChEMBL ID>  (467) 
CHEMBL1962175

>  <Assay Description>  (467) 
GSK_PKIS: SYK mean inhibition at 1 uM [Nanosyn]

>  <BAO Format ID>  (467) 
BAO_0000357

>  <BAO Label>  (467) 
single protein format

>  <Assay Organism>  (467) 
None

>  <Target ChEMBL ID>  (467) 
CHEMBL2599

>  <Target Name>  (467) 
Tyrosine-protein kinase SYK

>  <Target Organism>  (467) 
Homo sapiens

>  <Target Type>  (467) 
SINGLE PROTEIN

>  <Document ChEMBL ID>  (467) 
CHEMBL1961873

>  <Source Description>  (467) 
GSK Published Kinase Inhibitor Set

>  <Document Journal>  (467) 
nan

>  <Document Year>  (467) 
nan

>  <Active>  (467) 
0.0

>  <bits>  (467) 
<rdkit.DataStructs.cDataStructs.ExplicitBitVect object at 0x00000193F33E7060>

>  <Group>  (467) 
G2

$$$$

     RDKit          2D

 29 33  0  0  0  0  0  0  0  0999 V2000
    0.0000   -9.6073    0.0000 Cl  0  0  0  0  0  0  0  0  0  0  0  0
    0.0000   -8.1073    0.0000 C   0  0  0  0  0  0  0  0  0  0  0  0
   -1.2990   -7.3573    0.0000 C   0  0  0  0  0  0  0  0  0  0  0  0
   -1.2990   -5.8573    0.0000 C   0  0  0  0  0  0  0  0  0  0  0  0
   -0.0000   -5.1073    0.0000 C   0  0  0  0  0  0  0  0  0  0  0  0
   -0.0000   -3.6073    0.0000 C   0  0  0  0  0  0  0  0  0  0  0  0
    1.2135   -2.7256    0.0000 N   0  0  0  0  0  0  0  0  0  0  0  0
    0.7500   -1.2990    0.0000 N   0  0  0  0  0  0  0  0  0  0  0  0
    1.5000    0.0000    0.0000 N   0  0  0  0  0  0  0  0  0  0  0  0
    0.7500    1.2990    0.0000 C   0  0  0  0  0  0  0  0  0  0  0  0
   -0.7500    1.2990    0.0000 C   0  0  0  0  0  0  0  0  0  0  0  0
   -1.5000    0.0000    0.0000 C   0  0  0  0  0  0  0  0  0  0  0  0
   -0.7500   -1.2990    0.0000 C   0  0  0  0  0  0  0  0  0  0  0  0
   -1.2135   -2.7256    0.0000 C   0  0  0  0  0  0  0  0  0  0  0  0
   -2.6401   -3.1891    0.0000 C   0  0  0  0  0  0  0  0  0  0  0  0
   -3.7548   -2.1855    0.0000 C   0  0  0  0  0  0  0  0  0  0  0  0
   -5.1814   -2.6490    0.0000 C   0  0  0  0  0  0  0  0  0  0  0  0
   -5.4933   -4.1162    0.0000 N   0  0  0  0  0  0  0  0  0  0  0  0
   -4.3786   -5.1199    0.0000 C   0  0  0  0  0  0  0  0  0  0  0  0
   -4.6904   -6.5871    0.0000 N   0  0  0  0  0  0  0  0  0  0  0  0
   -6.1170   -7.0506    0.0000 C   0  0  0  0  0  0  0  0  0  0  0  0
   -7.2317   -6.0469    0.0000 C   0  0  0  0  0  0  0  0  0  0  0  0
   -8.6583   -6.5105    0.0000 C   0  0  0  0  0  0  0  0  0  0  0  0
   -8.9702   -7.9777    0.0000 C   0  0  0  0  0  0  0  0  0  0  0  0
   -7.8555   -8.9814    0.0000 C   0  0  0  0  0  0  0  0  0  0  0  0
   -6.4289   -8.5179    0.0000 C   0  0  0  0  0  0  0  0  0  0  0  0
   -2.9520   -4.6564    0.0000 N   0  0  0  0  0  0  0  0  0  0  0  0
    1.2990   -5.8573    0.0000 C   0  0  0  0  0  0  0  0  0  0  0  0
    1.2990   -7.3573    0.0000 C   0  0  0  0  0  0  0  0  0  0  0  0
  1  2  1  0
  2  3  2  0
  3  4  1  0
  4  5  2  0
  5  6  1  0
  6  7  2  0
  7  8  1  0
  8  9  1  0
  9 10  2  0
 10 11  1  0
 11 12  2  0
 12 13  1  0
 13 14  2  0
 14 15  1  0
 15 16  2  0
 16 17  1  0
 17 18  2  0
 18 19  1  0
 19 20  1  0
 20 21  1  0
 21 22  2  0
 22 23  1  0
 23 24  2  0
 24 25  1  0
 25 26  2  0
 19 27  2  0
  5 28  1  0
 28 29  2  0
 29  2  1  0
 14  6  1  0
 27 15  1  0
 13  8  1  0
 26 21  1  0
M  END
>  <Compound_ID>  (468) 
CHEMBL189148

>  <Molecule Name>  (468) 
GW829055X

>  <Molecular Weight>  (468) 
398.86

>  <AlogP>  (468) 
5.25

>  <Smiles>  (468) 
Clc1ccc(-c2nn3ncccc3c2-c2ccnc(Nc3ccccc3)n2)cc1

>  <Standard Type>  (468) 
Inhibition

>  <Standard Relation>  (468) 
'='

>  <Standard Units>  (468) 
%

>  <Standard Value>  (468) 
2.04

>  <Assay ChEMBL ID>  (468) 
CHEMBL1962175

>  <Assay Description>  (468) 
GSK_PKIS: SYK mean inhibition at 1 uM [Nanosyn]

>  <BAO Format ID>  (468) 
BAO_0000357

>  <BAO Label>  (468) 
single protein format

>  <Assay Organism>  (468) 
None

>  <Target ChEMBL ID>  (468) 
CHEMBL2599

>  <Target Name>  (468) 
Tyrosine-protein kinase SYK

>  <Target Organism>  (468) 
Homo sapiens

>  <Target Type>  (468) 
SINGLE PROTEIN

>  <Document ChEMBL ID>  (468) 
CHEMBL1961873

>  <Source Description>  (468) 
GSK Published Kinase Inhibitor Set

>  <Document Journal>  (468) 
nan

>  <Document Year>  (468) 
nan

>  <Active>  (468) 
0.0

>  <bits>  (468) 
<rdkit.DataStructs.cDataStructs.ExplicitBitVect object at 0x00000193F33E62D0>

>  <Group>  (468) 
G2

$$$$

     RDKit          2D

 33 36  0  0  0  0  0  0  0  0999 V2000
    3.0000    0.0000    0.0000 C   0  0  0  0  0  0  0  0  0  0  0  0
    1.5000    0.0000    0.0000 C   0  0  0  0  0  0  0  0  0  0  0  0
    0.7500   -1.2990    0.0000 N   0  0  0  0  0  0  0  0  0  0  0  0
   -0.7500   -1.2990    0.0000 C   0  0  0  0  0  0  0  0  0  0  0  0
   -1.5000   -2.5981    0.0000 N   0  0  0  0  0  0  0  0  0  0  0  0
   -3.0000   -2.5981    0.0000 C   0  0  0  0  0  0  0  0  0  0  0  0
   -3.8817   -3.8116    0.0000 N   0  0  0  0  0  0  0  0  0  0  0  0
   -5.3083   -3.3481    0.0000 C   0  0  0  0  0  0  0  0  0  0  0  0
   -5.3083   -1.8481    0.0000 C   0  0  0  0  0  0  0  0  0  0  0  0
   -6.5218   -0.9664    0.0000 C   0  0  0  0  0  0  0  0  0  0  0  0
   -7.8921   -1.5765    0.0000 O   0  0  0  0  0  0  0  0  0  0  0  0
   -6.3650    0.5254    0.0000 N   0  0  0  0  0  0  0  0  0  0  0  0
   -7.5785    1.4071    0.0000 C   0  0  0  0  0  0  0  0  0  0  0  0
   -7.4217    2.8988    0.0000 C   0  0  0  0  0  0  0  0  0  0  0  0
   -6.0514    3.5090    0.0000 C   0  0  0  0  0  0  0  0  0  0  0  0
   -8.6353    3.7805    0.0000 C   0  0  0  0  0  0  0  0  0  0  0  0
  -10.0056    3.1704    0.0000 C   0  0  0  0  0  0  0  0  0  0  0  0
  -10.1624    1.6786    0.0000 C   0  0  0  0  0  0  0  0  0  0  0  0
   -8.9488    0.7970    0.0000 C   0  0  0  0  0  0  0  0  0  0  0  0
   -9.1056   -0.6948    0.0000 Cl  0  0  0  0  0  0  0  0  0  0  0  0
   -3.8817   -1.3846    0.0000 S   0  0  0  0  0  0  0  0  0  0  0  0
   -1.5000    0.0000    0.0000 C   0  0  0  0  0  0  0  0  0  0  0  0
   -0.7500    1.2990    0.0000 C   0  0  0  0  0  0  0  0  0  0  0  0
   -1.5000    2.5981    0.0000 N   0  0  0  0  0  0  0  0  0  0  0  0
   -0.7500    3.8971    0.0000 C   0  0  0  0  0  0  0  0  0  0  0  0
   -1.5000    5.1962    0.0000 C   0  0  0  0  0  0  0  0  0  0  0  0
   -3.0000    5.1962    0.0000 N   0  0  0  0  0  0  0  0  0  0  0  0
   -3.7500    6.4952    0.0000 C   0  0  0  0  0  0  0  0  0  0  0  0
   -3.0000    7.7942    0.0000 C   0  0  0  0  0  0  0  0  0  0  0  0
   -3.7500    9.0933    0.0000 F   0  0  0  0  0  0  0  0  0  0  0  0
   -3.7500    3.8971    0.0000 C   0  0  0  0  0  0  0  0  0  0  0  0
   -3.0000    2.5981    0.0000 C   0  0  0  0  0  0  0  0  0  0  0  0
    0.7500    1.2990    0.0000 N   0  0  0  0  0  0  0  0  0  0  0  0
  1  2  1  0
  2  3  2  0
  3  4  1  0
  4  5  1  0
  5  6  1  0
  6  7  2  0
  7  8  1  0
  8  9  2  0
  9 10  1  0
 10 11  2  0
 10 12  1  0
 12 13  1  0
 13 14  2  0
 14 15  1  0
 14 16  1  0
 16 17  2  0
 17 18  1  0
 18 19  2  0
 19 20  1  0
  9 21  1  0
  4 22  2  0
 22 23  1  0
 23 24  1  0
 24 25  1  0
 25 26  1  0
 26 27  1  0
 27 28  1  0
 28 29  1  0
 29 30  1  0
 27 31  1  0
 31 32  1  0
 23 33  2  0
 33  2  1  0
 21  6  1  0
 32 24  1  0
 19 13  1  0
M  END
>  <Compound_ID>  (469) 
CHEMBL240158

>  <Molecule Name>  (469) 
nan

>  <Molecular Weight>  (469) 
490.01

>  <AlogP>  (469) 
4.29

>  <Smiles>  (469) 
Cc1nc(Nc2ncc(C(=O)Nc3c(C)cccc3Cl)s2)cc(N2CCN(CCF)CC2)n1

>  <Standard Type>  (469) 
Inhibition

>  <Standard Relation>  (469) 
'='

>  <Standard Units>  (469) 
%

>  <Standard Value>  (469) 
4.5

>  <Assay ChEMBL ID>  (469) 
CHEMBL901556

>  <Assay Description>  (469) 
Inhibition of SYK at 10 nM

>  <BAO Format ID>  (469) 
BAO_0000357

>  <BAO Label>  (469) 
single protein format

>  <Assay Organism>  (469) 
None

>  <Target ChEMBL ID>  (469) 
CHEMBL2599

>  <Target Name>  (469) 
Tyrosine-protein kinase SYK

>  <Target Organism>  (469) 
Homo sapiens

>  <Target Type>  (469) 
SINGLE PROTEIN

>  <Document ChEMBL ID>  (469) 
CHEMBL1138257

>  <Source Description>  (469) 
Scientific Literature

>  <Document Journal>  (469) 
J Med Chem

>  <Document Year>  (469) 
2007.0

>  <Active>  (469) 
0.0

>  <bits>  (469) 
<rdkit.DataStructs.cDataStructs.ExplicitBitVect object at 0x00000193F33E49E0>

>  <Group>  (469) 
G2

$$$$

     RDKit          2D

 34 39  0  0  0  0  0  0  0  0999 V2000
   -9.5663  -10.9485    0.0000 N   0  0  0  0  0  0  0  0  0  0  0  0
  -10.5700   -9.8338    0.0000 C   0  0  0  0  0  0  0  0  0  0  0  0
   -9.4553   -8.8301    0.0000 C   0  0  0  0  0  0  0  0  0  0  0  0
   -8.0287   -9.2936    0.0000 C   0  0  0  0  0  0  0  0  0  0  0  0
   -6.9140   -8.2899    0.0000 C   0  0  0  0  0  0  0  0  0  0  0  0
   -7.2258   -6.8227    0.0000 C   0  0  0  0  0  0  0  0  0  0  0  0
   -6.1111   -5.8190    0.0000 C   0  0  0  0  0  0  0  0  0  0  0  0
   -4.6845   -6.2825    0.0000 C   0  0  0  0  0  0  0  0  0  0  0  0
   -3.5698   -5.2788    0.0000 N   0  0  0  0  0  0  0  0  0  0  0  0
   -3.8817   -3.8116    0.0000 C   0  0  0  0  0  0  0  0  0  0  0  0
   -3.0000   -2.5981    0.0000 C   0  0  0  0  0  0  0  0  0  0  0  0
   -1.5000   -2.5981    0.0000 C   0  0  0  0  0  0  0  0  0  0  0  0
   -0.7500   -3.8971    0.0000 C   0  0  0  0  0  0  0  0  0  0  0  0
    0.7500   -3.8971    0.0000 C   0  0  0  0  0  0  0  0  0  0  0  0
    1.5000   -2.5981    0.0000 C   0  0  0  0  0  0  0  0  0  0  0  0
    3.0000   -2.5981    0.0000 S   0  0  0  0  0  0  0  0  0  0  0  0
    4.5000   -2.5981    0.0000 N   0  0  0  0  0  0  0  0  0  0  0  0
    3.0000   -4.0981    0.0000 O   0  0  0  0  0  0  0  0  0  0  0  0
    3.0000   -1.0981    0.0000 O   0  0  0  0  0  0  0  0  0  0  0  0
    0.7500   -1.2990    0.0000 C   0  0  0  0  0  0  0  0  0  0  0  0
    1.5000    0.0000    0.0000 C   0  0  0  0  0  0  0  0  0  0  0  0
    0.7500    1.2990    0.0000 C   0  0  0  0  0  0  0  0  0  0  0  0
   -0.7500    1.2990    0.0000 C   0  0  0  0  0  0  0  0  0  0  0  0
   -1.5000    0.0000    0.0000 C   0  0  0  0  0  0  0  0  0  0  0  0
   -0.7500   -1.2990    0.0000 C   0  0  0  0  0  0  0  0  0  0  0  0
   -3.8817   -1.3846    0.0000 C   0  0  0  0  0  0  0  0  0  0  0  0
   -5.3083   -1.8481    0.0000 N   0  0  0  0  0  0  0  0  0  0  0  0
   -5.3083   -3.3481    0.0000 N   0  0  0  0  0  0  0  0  0  0  0  0
   -6.4230   -4.3518    0.0000 C   0  0  0  0  0  0  0  0  0  0  0  0
   -8.6524   -6.3592    0.0000 C   0  0  0  0  0  0  0  0  0  0  0  0
   -9.7671   -7.3629    0.0000 C   0  0  0  0  0  0  0  0  0  0  0  0
  -11.5737   -8.7191    0.0000 C   0  0  0  0  0  0  0  0  0  0  0  0
  -12.6884   -9.7228    0.0000 C   0  0  0  0  0  0  0  0  0  0  0  0
  -11.6847  -10.8375    0.0000 C   0  0  0  0  0  0  0  0  0  0  0  0
  1  2  1  0
  2  3  1  0
  3  4  2  0
  4  5  1  0
  5  6  2  0
  6  7  1  0
  7  8  1  0
  8  9  2  0
  9 10  1  0
 10 11  2  0
 11 12  1  0
 12 13  2  0
 13 14  1  0
 14 15  2  0
 15 16  1  0
 16 17  1  0
 16 18  2  0
 16 19  2  0
 15 20  1  0
 20 21  2  0
 21 22  1  0
 22 23  2  0
 23 24  1  0
 24 25  2  0
 11 26  1  0
 26 27  2  0
 27 28  1  0
 28 29  1  0
  6 30  1  0
 30 31  2  0
  2 32  1  0
 32 33  1  0
 33 34  1  0
 34  2  1  0
 31  3  1  0
 29  7  2  0
 28 10  1  0
 25 12  1  0
 25 20  1  0
M  END
>  <Compound_ID>  (470) 
CHEMBL4278763

>  <Molecule Name>  (470) 
nan

>  <Molecular Weight>  (470) 
469.57

>  <AlogP>  (470) 
4.20

>  <Smiles>  (470) 
NC1(c2ccc(-c3cnc4c(-c5ccc(S(N)(=O)=O)c6ccccc56)cnn4c3)cc2)CCC1

>  <Standard Type>  (470) 
Inhibition

>  <Standard Relation>  (470) 
'='

>  <Standard Units>  (470) 
%

>  <Standard Value>  (470) 
4.0

>  <Assay ChEMBL ID>  (470) 
CHEMBL4263956

>  <Assay Description>  (470) 
Inhibition of SYK (unknown origin) at 1 uM relative to control

>  <BAO Format ID>  (470) 
BAO_0000357

>  <BAO Label>  (470) 
single protein format

>  <Assay Organism>  (470) 
Homo sapiens

>  <Target ChEMBL ID>  (470) 
CHEMBL2599

>  <Target Name>  (470) 
Tyrosine-protein kinase SYK

>  <Target Organism>  (470) 
Homo sapiens

>  <Target Type>  (470) 
SINGLE PROTEIN

>  <Document ChEMBL ID>  (470) 
CHEMBL4261595

>  <Source Description>  (470) 
Scientific Literature

>  <Document Journal>  (470) 
Bioorg Med Chem Lett

>  <Document Year>  (470) 
2018.0

>  <Active>  (470) 
0.0

>  <bits>  (470) 
<rdkit.DataStructs.cDataStructs.ExplicitBitVect object at 0x00000193F33E50E0>

>  <Group>  (470) 
G2

$$$$

     RDKit          2D

 27 30  0  0  0  0  0  0  0  0999 V2000
    3.7500   -1.2990    0.0000 N   0  0  0  0  0  0  0  0  0  0  0  0
    3.0000    0.0000    0.0000 C   0  0  0  0  0  0  0  0  0  0  0  0
    1.5000    0.0000    0.0000 C   0  0  0  0  0  0  0  0  0  0  0  0
    0.7500   -1.2990    0.0000 C   0  0  0  0  0  0  0  0  0  0  0  0
   -0.7500   -1.2990    0.0000 C   0  0  0  0  0  0  0  0  0  0  0  0
   -1.5000    0.0000    0.0000 C   0  0  0  0  0  0  0  0  0  0  0  0
   -3.0000    0.0000    0.0000 C   0  0  0  0  0  0  0  0  0  0  0  0
   -3.8817   -1.2135    0.0000 N   0  0  0  0  0  0  0  0  0  0  0  0
   -5.3083   -0.7500    0.0000 C   0  0  0  0  0  0  0  0  0  0  0  0
   -6.5218   -1.6317    0.0000 C   0  0  0  0  0  0  0  0  0  0  0  0
   -7.8921   -1.0216    0.0000 C   0  0  0  0  0  0  0  0  0  0  0  0
   -9.1056   -1.9033    0.0000 C   0  0  0  0  0  0  0  0  0  0  0  0
   -8.9488   -3.3950    0.0000 C   0  0  0  0  0  0  0  0  0  0  0  0
  -10.1624   -4.2767    0.0000 Cl  0  0  0  0  0  0  0  0  0  0  0  0
   -7.5785   -4.0051    0.0000 C   0  0  0  0  0  0  0  0  0  0  0  0
   -7.4217   -5.4969    0.0000 O   0  0  0  0  0  0  0  0  0  0  0  0
   -6.3650   -3.1235    0.0000 C   0  0  0  0  0  0  0  0  0  0  0  0
   -5.3083    0.7500    0.0000 C   0  0  0  0  0  0  0  0  0  0  0  0
   -6.5218    1.6317    0.0000 C   0  0  0  0  0  0  0  0  0  0  0  0
   -6.3650    3.1235    0.0000 C   0  0  0  0  0  0  0  0  0  0  0  0
   -7.5785    4.0051    0.0000 C   0  0  0  0  0  0  0  0  0  0  0  0
   -8.9488    3.3950    0.0000 N   0  0  0  0  0  0  0  0  0  0  0  0
   -9.1056    1.9033    0.0000 C   0  0  0  0  0  0  0  0  0  0  0  0
   -7.8921    1.0216    0.0000 C   0  0  0  0  0  0  0  0  0  0  0  0
   -3.8817    1.2135    0.0000 N   0  0  0  0  0  0  0  0  0  0  0  0
   -0.7500    1.2990    0.0000 C   0  0  0  0  0  0  0  0  0  0  0  0
    0.7500    1.2990    0.0000 C   0  0  0  0  0  0  0  0  0  0  0  0
  1  2  1  0
  2  3  1  0
  3  4  2  0
  4  5  1  0
  5  6  2  0
  6  7  1  0
  7  8  2  0
  8  9  1  0
  9 10  1  0
 10 11  2  0
 11 12  1  0
 12 13  2  0
 13 14  1  0
 13 15  1  0
 15 16  1  0
 15 17  2  0
  9 18  2  0
 18 19  1  0
 19 20  2  0
 20 21  1  0
 21 22  2  0
 22 23  1  0
 23 24  2  0
 18 25  1  0
  6 26  1  0
 26 27  2  0
 27  3  1  0
 25  7  1  0
 17 10  1  0
 24 19  1  0
M  END
>  <Compound_ID>  (471) 
CHEMBL1909412

>  <Molecule Name>  (471) 
nan

>  <Molecular Weight>  (471) 
413.31

>  <AlogP>  (471) 
4.62

>  <Smiles>  (471) 
NCc1ccc(-c2nc(-c3ccc(Cl)c(O)c3)c(-c3ccncc3)[nH]2)cc1

>  <Standard Type>  (471) 
Inhibition

>  <Standard Relation>  (471) 
'='

>  <Standard Units>  (471) 
%

>  <Standard Value>  (471) 
1.13

>  <Assay ChEMBL ID>  (471) 
CHEMBL1962175

>  <Assay Description>  (471) 
GSK_PKIS: SYK mean inhibition at 1 uM [Nanosyn]

>  <BAO Format ID>  (471) 
BAO_0000357

>  <BAO Label>  (471) 
single protein format

>  <Assay Organism>  (471) 
None

>  <Target ChEMBL ID>  (471) 
CHEMBL2599

>  <Target Name>  (471) 
Tyrosine-protein kinase SYK

>  <Target Organism>  (471) 
Homo sapiens

>  <Target Type>  (471) 
SINGLE PROTEIN

>  <Document ChEMBL ID>  (471) 
CHEMBL1961873

>  <Source Description>  (471) 
GSK Published Kinase Inhibitor Set

>  <Document Journal>  (471) 
nan

>  <Document Year>  (471) 
nan

>  <Active>  (471) 
0.0

>  <bits>  (471) 
<rdkit.DataStructs.cDataStructs.ExplicitBitVect object at 0x00000193F33E5E70>

>  <Group>  (471) 
G2

$$$$

     RDKit          2D

 29 31  0  0  0  0  0  0  0  0999 V2000
    2.5981   -8.1073    0.0000 C   0  0  0  0  0  0  0  0  0  0  0  0
    1.2990   -7.3573    0.0000 N   0  0  0  0  0  0  0  0  0  0  0  0
    1.2990   -5.8573    0.0000 C   0  0  0  0  0  0  0  0  0  0  0  0
    2.5981   -5.1073    0.0000 O   0  0  0  0  0  0  0  0  0  0  0  0
   -0.0000   -5.1073    0.0000 N   0  0  0  0  0  0  0  0  0  0  0  0
   -0.0000   -3.6073    0.0000 C   0  0  0  0  0  0  0  0  0  0  0  0
    1.2135   -2.7256    0.0000 S   0  0  0  0  0  0  0  0  0  0  0  0
    0.7500   -1.2990    0.0000 C   0  0  0  0  0  0  0  0  0  0  0  0
    1.5000    0.0000    0.0000 C   0  0  0  0  0  0  0  0  0  0  0  0
    3.0000    0.0000    0.0000 C   0  0  0  0  0  0  0  0  0  0  0  0
    3.7500    1.2990    0.0000 C   0  0  0  0  0  0  0  0  0  0  0  0
    3.7500   -1.2990    0.0000 C   0  0  0  0  0  0  0  0  0  0  0  0
    0.7500    1.2990    0.0000 C   0  0  0  0  0  0  0  0  0  0  0  0
   -0.7500    1.2990    0.0000 C   0  0  0  0  0  0  0  0  0  0  0  0
   -1.5000    2.5981    0.0000 N   0  0  0  0  0  0  0  0  0  0  0  0
   -0.7500    3.8971    0.0000 S   0  0  0  0  0  0  0  0  0  0  0  0
    0.5490    3.1471    0.0000 O   0  0  0  0  0  0  0  0  0  0  0  0
   -2.0490    4.6471    0.0000 O   0  0  0  0  0  0  0  0  0  0  0  0
    0.0000    5.1962    0.0000 C   0  0  0  0  0  0  0  0  0  0  0  0
   -0.6101    6.5665    0.0000 C   0  0  0  0  0  0  0  0  0  0  0  0
    0.5046    7.5702    0.0000 C   0  0  0  0  0  0  0  0  0  0  0  0
    1.8037    6.8202    0.0000 C   0  0  0  0  0  0  0  0  0  0  0  0
    1.4918    5.3529    0.0000 S   0  0  0  0  0  0  0  0  0  0  0  0
   -1.5000    0.0000    0.0000 C   0  0  0  0  0  0  0  0  0  0  0  0
   -0.7500   -1.2990    0.0000 C   0  0  0  0  0  0  0  0  0  0  0  0
   -1.2135   -2.7256    0.0000 C   0  0  0  0  0  0  0  0  0  0  0  0
   -2.6401   -3.1891    0.0000 C   0  0  0  0  0  0  0  0  0  0  0  0
   -2.9520   -4.6564    0.0000 N   0  0  0  0  0  0  0  0  0  0  0  0
   -3.7548   -2.1855    0.0000 O   0  0  0  0  0  0  0  0  0  0  0  0
  1  2  1  0
  2  3  1  0
  3  4  2  0
  3  5  1  0
  5  6  1  0
  6  7  1  0
  7  8  1  0
  8  9  2  0
  9 10  1  0
 10 11  1  0
 10 12  1  0
  9 13  1  0
 13 14  2  0
 14 15  1  0
 15 16  1  0
 16 17  2  0
 16 18  2  0
 16 19  1  0
 19 20  2  0
 20 21  1  0
 21 22  2  0
 22 23  1  0
 14 24  1  0
 24 25  2  0
 25 26  1  0
 26 27  1  0
 27 28  1  0
 27 29  2  0
 26  6  2  0
 25  8  1  0
 23 19  1  0
M  END
>  <Compound_ID>  (472) 
CHEMBL4288081

>  <Molecule Name>  (472) 
nan

>  <Molecular Weight>  (472) 
452.58

>  <AlogP>  (472) 
3.74

>  <Smiles>  (472) 
CNC(=O)Nc1sc2c(C(C)C)cc(NS(=O)(=O)c3cccs3)cc2c1C(N)=O

>  <Standard Type>  (472) 
Inhibition

>  <Standard Relation>  (472) 
'='

>  <Standard Units>  (472) 
%

>  <Standard Value>  (472) 
16.56

>  <Assay ChEMBL ID>  (472) 
CHEMBL4266913

>  <Assay Description>  (472) 
Inhibition of SYK (unknown origin) at 10 uM

>  <BAO Format ID>  (472) 
BAO_0000357

>  <BAO Label>  (472) 
single protein format

>  <Assay Organism>  (472) 
Homo sapiens

>  <Target ChEMBL ID>  (472) 
CHEMBL2599

>  <Target Name>  (472) 
Tyrosine-protein kinase SYK

>  <Target Organism>  (472) 
Homo sapiens

>  <Target Type>  (472) 
SINGLE PROTEIN

>  <Document ChEMBL ID>  (472) 
CHEMBL4265887

>  <Source Description>  (472) 
Scientific Literature

>  <Document Journal>  (472) 
Bioorg Med Chem Lett

>  <Document Year>  (472) 
2018.0

>  <Active>  (472) 
0.0

>  <bits>  (472) 
<rdkit.DataStructs.cDataStructs.ExplicitBitVect object at 0x00000193F33E80B0>

>  <Group>  (472) 
G2

$$$$

     RDKit          2D

 21 23  0  0  0  0  0  0  0  0999 V2000
   -6.2940    7.2357    0.0000 C   0  0  0  0  0  0  0  0  0  0  0  0
   -7.7206    6.7722    0.0000 O   0  0  0  0  0  0  0  0  0  0  0  0
   -8.0325    5.3050    0.0000 C   0  0  0  0  0  0  0  0  0  0  0  0
   -6.9177    4.3013    0.0000 C   0  0  0  0  0  0  0  0  0  0  0  0
   -7.2296    2.8340    0.0000 C   0  0  0  0  0  0  0  0  0  0  0  0
   -6.1149    1.8303    0.0000 C   0  0  0  0  0  0  0  0  0  0  0  0
   -4.6883    2.2939    0.0000 N   0  0  0  0  0  0  0  0  0  0  0  0
   -3.5736    1.2902    0.0000 N   0  0  0  0  0  0  0  0  0  0  0  0
   -2.1470    1.7537    0.0000 C   0  0  0  0  0  0  0  0  0  0  0  0
   -1.8351    3.2209    0.0000 N   0  0  0  0  0  0  0  0  0  0  0  0
   -0.4086    3.6844    0.0000 C   0  0  0  0  0  0  0  0  0  0  0  0
    0.7062    2.6807    0.0000 N   0  0  0  0  0  0  0  0  0  0  0  0
    0.3943    1.2135    0.0000 C   0  0  0  0  0  0  0  0  0  0  0  0
    1.2760    0.0000    0.0000 N   0  0  0  0  0  0  0  0  0  0  0  0
    0.3943   -1.2135    0.0000 N   0  0  0  0  0  0  0  0  0  0  0  0
   -1.0323   -0.7500    0.0000 C   0  0  0  0  0  0  0  0  0  0  0  0
   -1.0323    0.7500    0.0000 C   0  0  0  0  0  0  0  0  0  0  0  0
   -8.6562    2.3705    0.0000 C   0  0  0  0  0  0  0  0  0  0  0  0
   -9.7709    3.3742    0.0000 C   0  0  0  0  0  0  0  0  0  0  0  0
   -9.4590    4.8414    0.0000 C   0  0  0  0  0  0  0  0  0  0  0  0
  -10.5738    5.8451    0.0000 O   0  0  0  0  0  0  0  0  0  0  0  0
  1  2  1  0
  2  3  1  0
  3  4  2  0
  4  5  1  0
  5  6  1  0
  6  7  2  0
  7  8  1  0
  8  9  1  0
  9 10  2  0
 10 11  1  0
 11 12  2  0
 12 13  1  0
 13 14  1  0
 14 15  1  0
 15 16  2  0
 16 17  1  0
  5 18  2  0
 18 19  1  0
 19 20  2  0
 20 21  1  0
 20  3  1  0
 17  9  1  0
 17 13  2  0
M  END
>  <Compound_ID>  (473) 
CHEMBL66004

>  <Molecule Name>  (473) 
GW578748X

>  <Molecular Weight>  (473) 
284.28

>  <AlogP>  (473) 
1.51

>  <Smiles>  (473) 
COc1cc(/C=N/Nc2ncnc3[nH]ncc23)ccc1O

>  <Standard Type>  (473) 
Inhibition

>  <Standard Relation>  (473) 
'='

>  <Standard Units>  (473) 
%

>  <Standard Value>  (473) 
-7.54

>  <Assay ChEMBL ID>  (473) 
CHEMBL1962174

>  <Assay Description>  (473) 
GSK_PKIS: SYK mean inhibition at 0.1 uM [Nanosyn]

>  <BAO Format ID>  (473) 
BAO_0000357

>  <BAO Label>  (473) 
single protein format

>  <Assay Organism>  (473) 
None

>  <Target ChEMBL ID>  (473) 
CHEMBL2599

>  <Target Name>  (473) 
Tyrosine-protein kinase SYK

>  <Target Organism>  (473) 
Homo sapiens

>  <Target Type>  (473) 
SINGLE PROTEIN

>  <Document ChEMBL ID>  (473) 
CHEMBL1961873

>  <Source Description>  (473) 
GSK Published Kinase Inhibitor Set

>  <Document Journal>  (473) 
nan

>  <Document Year>  (473) 
nan

>  <Active>  (473) 
0.0

>  <bits>  (473) 
<rdkit.DataStructs.cDataStructs.ExplicitBitVect object at 0x00000193F33E9540>

>  <Group>  (473) 
G2

$$$$

     RDKit          2D

 27 31  0  0  0  0  0  0  0  0999 V2000
   -0.7500   -6.4952    0.0000 C   0  0  0  0  0  0  0  0  0  0  0  0
   -1.5000   -5.1962    0.0000 C   0  0  0  0  0  0  0  0  0  0  0  0
   -0.7500   -3.8971    0.0000 C   0  0  0  0  0  0  0  0  0  0  0  0
    0.7500   -3.8971    0.0000 C   0  0  0  0  0  0  0  0  0  0  0  0
    1.5000   -2.5981    0.0000 C   0  0  0  0  0  0  0  0  0  0  0  0
    0.7500   -1.2990    0.0000 C   0  0  0  0  0  0  0  0  0  0  0  0
    1.5000    0.0000    0.0000 C   0  0  0  0  0  0  0  0  0  0  0  0
    0.7500    1.2990    0.0000 C   0  0  0  0  0  0  0  0  0  0  0  0
   -0.7500    1.2990    0.0000 C   0  0  0  0  0  0  0  0  0  0  0  0
    0.0000    2.5981    0.0000 C   0  0  0  0  0  0  0  0  0  0  0  0
   -0.7500    3.8971    0.0000 C   0  0  0  0  0  0  0  0  0  0  0  0
   -2.2500    3.8971    0.0000 N   0  0  0  0  0  0  0  0  0  0  0  0
   -3.0000    5.1962    0.0000 C   0  0  0  0  0  0  0  0  0  0  0  0
   -4.5000    5.1962    0.0000 N   0  0  0  0  0  0  0  0  0  0  0  0
   -5.2500    6.4952    0.0000 C   0  0  0  0  0  0  0  0  0  0  0  0
   -4.5000    7.7942    0.0000 N   0  0  0  0  0  0  0  0  0  0  0  0
   -3.0000    7.7942    0.0000 C   0  0  0  0  0  0  0  0  0  0  0  0
   -1.9963    8.9089    0.0000 N   0  0  0  0  0  0  0  0  0  0  0  0
   -0.6260    8.2988    0.0000 C   0  0  0  0  0  0  0  0  0  0  0  0
   -0.7828    6.8071    0.0000 N   0  0  0  0  0  0  0  0  0  0  0  0
   -2.2500    6.4952    0.0000 C   0  0  0  0  0  0  0  0  0  0  0  0
   -3.0000    2.5981    0.0000 C   0  0  0  0  0  0  0  0  0  0  0  0
   -2.2500    1.2990    0.0000 C   0  0  0  0  0  0  0  0  0  0  0  0
   -1.5000    0.0000    0.0000 N   0  0  0  0  0  0  0  0  0  0  0  0
   -0.7500   -1.2990    0.0000 C   0  0  0  0  0  0  0  0  0  0  0  0
    1.5000   -5.1962    0.0000 C   0  0  0  0  0  0  0  0  0  0  0  0
    0.7500   -6.4952    0.0000 C   0  0  0  0  0  0  0  0  0  0  0  0
  1  2  2  0
  2  3  1  0
  3  4  2  0
  4  5  1  0
  5  6  1  0
  6  7  1  0
  7  8  1  0
  8  9  1  0
  9 10  1  0
 10 11  1  0
 11 12  1  0
 12 13  1  0
 13 14  2  0
 14 15  1  0
 15 16  2  0
 16 17  1  0
 17 18  1  0
 18 19  1  0
 19 20  2  0
 20 21  1  0
 12 22  1  0
 22 23  1  0
  9 24  1  0
 24 25  1  0
  4 26  1  0
 26 27  2  0
 27  1  1  0
 25  6  1  0
 23  9  1  0
 21 13  1  0
 21 17  2  0
M  END
>  <Compound_ID>  (474) 
CHEMBL2420901

>  <Molecule Name>  (474) 
nan

>  <Molecular Weight>  (474) 
362.48

>  <AlogP>  (474) 
2.93

>  <Smiles>  (474) 
c1ccc(CC2CCC3(CCN(c4ncnc5[nH]cnc45)CC3)NC2)cc1

>  <Standard Type>  (474) 
Inhibition

>  <Standard Relation>  (474) 
'='

>  <Standard Units>  (474) 
%

>  <Standard Value>  (474) 
0.0

>  <Assay ChEMBL ID>  (474) 
CHEMBL2422072

>  <Assay Description>  (474) 
Inhibition of SYK (unknown origin) at 30 uM by microfluidic mobility shift assay relative to control

>  <BAO Format ID>  (474) 
BAO_0000357

>  <BAO Label>  (474) 
single protein format

>  <Assay Organism>  (474) 
Homo sapiens

>  <Target ChEMBL ID>  (474) 
CHEMBL2599

>  <Target Name>  (474) 
Tyrosine-protein kinase SYK

>  <Target Organism>  (474) 
Homo sapiens

>  <Target Type>  (474) 
SINGLE PROTEIN

>  <Document ChEMBL ID>  (474) 
CHEMBL2417369

>  <Source Description>  (474) 
Scientific Literature

>  <Document Journal>  (474) 
Bioorg Med Chem

>  <Document Year>  (474) 
2013.0

>  <Active>  (474) 
0.0

>  <bits>  (474) 
<rdkit.DataStructs.cDataStructs.ExplicitBitVect object at 0x00000193F33E8820>

>  <Group>  (474) 
G2

$$$$

     RDKit          2D

 27 30  0  0  0  0  0  0  0  0999 V2000
   -2.0143    8.6263    0.0000 C   0  0  0  0  0  0  0  0  0  0  0  0
   -3.4408    8.1628    0.0000 C   0  0  0  0  0  0  0  0  0  0  0  0
   -3.7527    6.6955    0.0000 C   0  0  0  0  0  0  0  0  0  0  0  0
   -2.6380    5.6918    0.0000 C   0  0  0  0  0  0  0  0  0  0  0  0
   -1.2114    6.1554    0.0000 O   0  0  0  0  0  0  0  0  0  0  0  0
   -2.9499    4.2246    0.0000 N   0  0  0  0  0  0  0  0  0  0  0  0
   -1.8351    3.2209    0.0000 C   0  0  0  0  0  0  0  0  0  0  0  0
   -0.4086    3.6844    0.0000 C   0  0  0  0  0  0  0  0  0  0  0  0
    0.7062    2.6807    0.0000 C   0  0  0  0  0  0  0  0  0  0  0  0
    0.3943    1.2135    0.0000 C   0  0  0  0  0  0  0  0  0  0  0  0
    1.2760    0.0000    0.0000 N   0  0  0  0  0  0  0  0  0  0  0  0
    0.3943   -1.2135    0.0000 N   0  0  0  0  0  0  0  0  0  0  0  0
   -1.0323   -0.7500    0.0000 C   0  0  0  0  0  0  0  0  0  0  0  0
   -1.0323    0.7500    0.0000 C   0  0  0  0  0  0  0  0  0  0  0  0
   -2.1470    1.7537    0.0000 C   0  0  0  0  0  0  0  0  0  0  0  0
   -5.1793    6.2320    0.0000 C   0  0  0  0  0  0  0  0  0  0  0  0
   -5.4912    4.7648    0.0000 C   0  0  0  0  0  0  0  0  0  0  0  0
   -6.9177    4.3013    0.0000 C   0  0  0  0  0  0  0  0  0  0  0  0
   -7.2296    2.8340    0.0000 C   0  0  0  0  0  0  0  0  0  0  0  0
   -6.1149    1.8303    0.0000 C   0  0  0  0  0  0  0  0  0  0  0  0
   -6.4268    0.3631    0.0000 F   0  0  0  0  0  0  0  0  0  0  0  0
   -4.6883    2.2939    0.0000 C   0  0  0  0  0  0  0  0  0  0  0  0
   -4.3764    3.7611    0.0000 C   0  0  0  0  0  0  0  0  0  0  0  0
   -6.2940    7.2357    0.0000 N   0  0  0  0  0  0  0  0  0  0  0  0
   -5.9821    8.7029    0.0000 C   0  0  0  0  0  0  0  0  0  0  0  0
   -7.0969    9.7066    0.0000 O   0  0  0  0  0  0  0  0  0  0  0  0
   -4.5556    9.1664    0.0000 N   0  0  0  0  0  0  0  0  0  0  0  0
  1  2  1  0
  2  3  2  0
  3  4  1  0
  4  5  2  0
  4  6  1  0
  6  7  1  0
  7  8  2  0
  8  9  1  0
  9 10  2  0
 10 11  1  0
 11 12  1  0
 12 13  2  0
 13 14  1  0
 14 15  2  0
  3 16  1  0
 16 17  1  0
 17 18  2  0
 18 19  1  0
 19 20  2  0
 20 21  1  0
 20 22  1  0
 22 23  2  0
 16 24  1  0
 24 25  1  0
 25 26  2  0
 25 27  1  0
 27  2  1  0
 15  7  1  0
 23 17  1  0
 14 10  1  0
M  END
>  <Compound_ID>  (475) 
CHEMBL384073

>  <Molecule Name>  (475) 
GSK-180736A

>  <Molecular Weight>  (475) 
365.37

>  <AlogP>  (475) 
2.97

>  <Smiles>  (475) 
CC1=C(C(=O)Nc2ccc3[nH]ncc3c2)C(c2ccc(F)cc2)NC(=O)N1

>  <Standard Type>  (475) 
Inhibition

>  <Standard Relation>  (475) 
'='

>  <Standard Units>  (475) 
%

>  <Standard Value>  (475) 
1.72

>  <Assay ChEMBL ID>  (475) 
CHEMBL1962175

>  <Assay Description>  (475) 
GSK_PKIS: SYK mean inhibition at 1 uM [Nanosyn]

>  <BAO Format ID>  (475) 
BAO_0000357

>  <BAO Label>  (475) 
single protein format

>  <Assay Organism>  (475) 
None

>  <Target ChEMBL ID>  (475) 
CHEMBL2599

>  <Target Name>  (475) 
Tyrosine-protein kinase SYK

>  <Target Organism>  (475) 
Homo sapiens

>  <Target Type>  (475) 
SINGLE PROTEIN

>  <Document ChEMBL ID>  (475) 
CHEMBL1961873

>  <Source Description>  (475) 
GSK Published Kinase Inhibitor Set

>  <Document Journal>  (475) 
nan

>  <Document Year>  (475) 
nan

>  <Active>  (475) 
0.0

>  <bits>  (475) 
<rdkit.DataStructs.cDataStructs.ExplicitBitVect object at 0x00000193F33EB760>

>  <Group>  (475) 
G2

$$$$

     RDKit          2D

 26 29  0  0  0  0  0  0  0  0999 V2000
   -4.6904   -6.5871    0.0000 C   0  0  0  0  0  0  0  0  0  0  0  0
   -4.3786   -5.1199    0.0000 O   0  0  0  0  0  0  0  0  0  0  0  0
   -2.9520   -4.6564    0.0000 C   0  0  0  0  0  0  0  0  0  0  0  0
   -1.8373   -5.6601    0.0000 O   0  0  0  0  0  0  0  0  0  0  0  0
   -2.6401   -3.1891    0.0000 N   0  0  0  0  0  0  0  0  0  0  0  0
   -1.2135   -2.7256    0.0000 C   0  0  0  0  0  0  0  0  0  0  0  0
   -0.0000   -3.6073    0.0000 N   0  0  0  0  0  0  0  0  0  0  0  0
    1.2135   -2.7256    0.0000 O   0  0  0  0  0  0  0  0  0  0  0  0
    0.7500   -1.2990    0.0000 C   0  0  0  0  0  0  0  0  0  0  0  0
    1.5000    0.0000    0.0000 C   0  0  0  0  0  0  0  0  0  0  0  0
    0.7500    1.2990    0.0000 C   0  0  0  0  0  0  0  0  0  0  0  0
    1.5000    2.5981    0.0000 C   0  0  0  0  0  0  0  0  0  0  0  0
    0.8899    3.9684    0.0000 C   0  0  0  0  0  0  0  0  0  0  0  0
   -0.5773    4.2803    0.0000 C   0  0  0  0  0  0  0  0  0  0  0  0
   -1.0409    5.7068    0.0000 C   0  0  0  0  0  0  0  0  0  0  0  0
   -2.5081    6.0187    0.0000 C   0  0  0  0  0  0  0  0  0  0  0  0
   -3.5118    4.9040    0.0000 C   0  0  0  0  0  0  0  0  0  0  0  0
   -3.0482    3.4774    0.0000 C   0  0  0  0  0  0  0  0  0  0  0  0
   -1.5810    3.1655    0.0000 N   0  0  0  0  0  0  0  0  0  0  0  0
    2.0046    4.9721    0.0000 N   0  0  0  0  0  0  0  0  0  0  0  0
    3.3037    4.2221    0.0000 N   0  0  0  0  0  0  0  0  0  0  0  0
    2.9918    2.7549    0.0000 C   0  0  0  0  0  0  0  0  0  0  0  0
    3.9955    1.6402    0.0000 C   0  0  0  0  0  0  0  0  0  0  0  0
   -0.7500    1.2990    0.0000 C   0  0  0  0  0  0  0  0  0  0  0  0
   -1.5000    0.0000    0.0000 C   0  0  0  0  0  0  0  0  0  0  0  0
   -0.7500   -1.2990    0.0000 C   0  0  0  0  0  0  0  0  0  0  0  0
  1  2  1  0
  2  3  1  0
  3  4  2  0
  3  5  1  0
  5  6  1  0
  6  7  2  0
  7  8  1  0
  8  9  1  0
  9 10  2  0
 10 11  1  0
 11 12  1  0
 12 13  1  0
 13 14  1  0
 14 15  2  0
 15 16  1  0
 16 17  2  0
 17 18  1  0
 18 19  2  0
 13 20  2  0
 20 21  1  0
 21 22  1  0
 22 23  1  0
 11 24  2  0
 24 25  1  0
 25 26  2  0
 26  6  1  0
 26  9  1  0
 22 12  2  0
 19 14  1  0
M  END
>  <Compound_ID>  (476) 
CHEMBL4066592

>  <Molecule Name>  (476) 
nan

>  <Molecular Weight>  (476) 
349.35

>  <AlogP>  (476) 
3.77

>  <Smiles>  (476) 
COC(=O)Nc1noc2cc(-c3c(-c4ccccn4)n[nH]c3C)ccc12

>  <Standard Type>  (476) 
Inhibition

>  <Standard Relation>  (476) 
'='

>  <Standard Units>  (476) 
%

>  <Standard Value>  (476) 
0.0

>  <Assay ChEMBL ID>  (476) 
CHEMBL4057663

>  <Assay Description>  (476) 
Inhibition of SYK (unknown origin) at 0.078 uM relative to control

>  <BAO Format ID>  (476) 
BAO_0000357

>  <BAO Label>  (476) 
single protein format

>  <Assay Organism>  (476) 
Homo sapiens

>  <Target ChEMBL ID>  (476) 
CHEMBL2599

>  <Target Name>  (476) 
Tyrosine-protein kinase SYK

>  <Target Organism>  (476) 
Homo sapiens

>  <Target Type>  (476) 
SINGLE PROTEIN

>  <Document ChEMBL ID>  (476) 
CHEMBL4052759

>  <Source Description>  (476) 
Scientific Literature

>  <Document Journal>  (476) 
Bioorg Med Chem Lett

>  <Document Year>  (476) 
2017.0

>  <Active>  (476) 
0.0

>  <bits>  (476) 
<rdkit.DataStructs.cDataStructs.ExplicitBitVect object at 0x00000193F33E9460>

>  <Group>  (476) 
G2

$$$$

     RDKit          2D

 35 39  0  0  0  0  0  0  0  0999 V2000
    5.2500   -1.2990    0.0000 N   0  0  0  0  0  0  0  0  0  0  0  0
    3.7500   -1.2990    0.0000 C   0  0  0  0  0  0  0  0  0  0  0  0
    3.0000   -2.5981    0.0000 O   0  0  0  0  0  0  0  0  0  0  0  0
    3.0000    0.0000    0.0000 C   0  0  0  0  0  0  0  0  0  0  0  0
    1.5000    0.0000    0.0000 C   0  0  0  0  0  0  0  0  0  0  0  0
    0.7500   -1.2990    0.0000 C   0  0  0  0  0  0  0  0  0  0  0  0
   -0.7500   -1.2990    0.0000 C   0  0  0  0  0  0  0  0  0  0  0  0
   -1.5000    0.0000    0.0000 C   0  0  0  0  0  0  0  0  0  0  0  0
   -0.7500    1.2990    0.0000 C   0  0  0  0  0  0  0  0  0  0  0  0
    0.7500    1.2990    0.0000 C   0  0  0  0  0  0  0  0  0  0  0  0
    1.5000    2.5981    0.0000 O   0  0  0  0  0  0  0  0  0  0  0  0
    0.7500    3.8971    0.0000 C   0  0  0  0  0  0  0  0  0  0  0  0
    1.5000    5.1962    0.0000 N   0  0  0  0  0  0  0  0  0  0  0  0
    0.7500    6.4952    0.0000 C   0  0  0  0  0  0  0  0  0  0  0  0
   -0.7500    6.4952    0.0000 C   0  0  0  0  0  0  0  0  0  0  0  0
   -1.5000    5.1962    0.0000 C   0  0  0  0  0  0  0  0  0  0  0  0
   -3.0000    5.1962    0.0000 C   0  0  0  0  0  0  0  0  0  0  0  0
   -3.8817    3.9826    0.0000 C   0  0  0  0  0  0  0  0  0  0  0  0
   -3.4182    2.5560    0.0000 C   0  0  0  0  0  0  0  0  0  0  0  0
   -4.4218    1.4413    0.0000 C   0  0  0  0  0  0  0  0  0  0  0  0
   -3.9583    0.0147    0.0000 C   0  0  0  0  0  0  0  0  0  0  0  0
   -2.4911   -0.2971    0.0000 C   0  0  0  0  0  0  0  0  0  0  0  0
   -2.0276   -1.7237    0.0000 F   0  0  0  0  0  0  0  0  0  0  0  0
   -1.4874    0.8176    0.0000 C   0  0  0  0  0  0  0  0  0  0  0  0
   -1.9509    2.2442    0.0000 C   0  0  0  0  0  0  0  0  0  0  0  0
   -5.3083    4.4462    0.0000 N   0  0  0  0  0  0  0  0  0  0  0  0
   -5.3083    5.9462    0.0000 C   0  0  0  0  0  0  0  0  0  0  0  0
   -3.8817    6.4097    0.0000 N   0  0  0  0  0  0  0  0  0  0  0  0
   -3.4182    7.8363    0.0000 C   0  0  0  0  0  0  0  0  0  0  0  0
   -1.9509    8.1481    0.0000 C   0  0  0  0  0  0  0  0  0  0  0  0
   -1.4874    9.5747    0.0000 C   0  0  0  0  0  0  0  0  0  0  0  0
   -2.4911   10.6894    0.0000 N   0  0  0  0  0  0  0  0  0  0  0  0
   -3.9583   10.3776    0.0000 C   0  0  0  0  0  0  0  0  0  0  0  0
   -4.4218    8.9510    0.0000 C   0  0  0  0  0  0  0  0  0  0  0  0
   -0.7500    3.8971    0.0000 N   0  0  0  0  0  0  0  0  0  0  0  0
  1  2  1  0
  2  3  2  0
  2  4  1  0
  4  5  1  0
  5  6  2  0
  6  7  1  0
  7  8  2  0
  8  9  1  0
  9 10  2  0
 10 11  1  0
 11 12  1  0
 12 13  2  0
 13 14  1  0
 14 15  2  0
 15 16  1  0
 16 17  1  0
 17 18  2  0
 18 19  1  0
 19 20  2  0
 20 21  1  0
 21 22  2  0
 22 23  1  0
 22 24  1  0
 24 25  2  0
 18 26  1  0
 26 27  2  0
 27 28  1  0
 28 29  1  0
 29 30  1  0
 30 31  1  0
 31 32  1  0
 32 33  1  0
 33 34  1  0
 16 35  2  0
 10  5  1  0
 35 12  1  0
 28 17  1  0
 34 29  1  0
 25 19  1  0
M  END
>  <Compound_ID>  (477) 
CHEMBL1785002

>  <Molecule Name>  (477) 
nan

>  <Molecular Weight>  (477) 
472.52

>  <AlogP>  (477) 
3.89

>  <Smiles>  (477) 
NC(=O)Cc1ccccc1Oc1nccc(-c2c(-c3ccc(F)cc3)ncn2C2CCNCC2)n1

>  <Standard Type>  (477) 
Inhibition

>  <Standard Relation>  (477) 
'='

>  <Standard Units>  (477) 
%

>  <Standard Value>  (477) 
-2.13

>  <Assay ChEMBL ID>  (477) 
CHEMBL1962174

>  <Assay Description>  (477) 
GSK_PKIS: SYK mean inhibition at 0.1 uM [Nanosyn]

>  <BAO Format ID>  (477) 
BAO_0000357

>  <BAO Label>  (477) 
single protein format

>  <Assay Organism>  (477) 
None

>  <Target ChEMBL ID>  (477) 
CHEMBL2599

>  <Target Name>  (477) 
Tyrosine-protein kinase SYK

>  <Target Organism>  (477) 
Homo sapiens

>  <Target Type>  (477) 
SINGLE PROTEIN

>  <Document ChEMBL ID>  (477) 
CHEMBL1961873

>  <Source Description>  (477) 
GSK Published Kinase Inhibitor Set

>  <Document Journal>  (477) 
nan

>  <Document Year>  (477) 
nan

>  <Active>  (477) 
0.0

>  <bits>  (477) 
<rdkit.DataStructs.cDataStructs.ExplicitBitVect object at 0x00000193F33EB990>

>  <Group>  (477) 
G2

$$$$

     RDKit          2D

 27 30  0  0  0  0  0  0  0  0999 V2000
    3.7500   -3.8971    0.0000 C   0  0  0  0  0  0  0  0  0  0  0  0
    3.0000   -2.5981    0.0000 C   0  0  0  0  0  0  0  0  0  0  0  0
    1.5000   -2.5981    0.0000 N   0  0  0  0  0  0  0  0  0  0  0  0
    0.7500   -1.2990    0.0000 C   0  0  0  0  0  0  0  0  0  0  0  0
    1.5000    0.0000    0.0000 N   0  0  0  0  0  0  0  0  0  0  0  0
    0.7500    1.2990    0.0000 C   0  0  0  0  0  0  0  0  0  0  0  0
   -0.7500    1.2990    0.0000 N   0  0  0  0  0  0  0  0  0  0  0  0
   -1.5000    0.0000    0.0000 C   0  0  0  0  0  0  0  0  0  0  0  0
   -2.9672   -0.3119    0.0000 S   0  0  0  0  0  0  0  0  0  0  0  0
   -3.1240   -1.8037    0.0000 C   0  0  0  0  0  0  0  0  0  0  0  0
   -4.4231   -2.5537    0.0000 C   0  0  0  0  0  0  0  0  0  0  0  0
   -5.7221   -1.8037    0.0000 C   0  0  0  0  0  0  0  0  0  0  0  0
   -7.0211   -2.5537    0.0000 C   0  0  0  0  0  0  0  0  0  0  0  0
   -7.0211   -4.0537    0.0000 C   0  0  0  0  0  0  0  0  0  0  0  0
   -5.7221   -4.8037    0.0000 C   0  0  0  0  0  0  0  0  0  0  0  0
   -4.4231   -4.0537    0.0000 C   0  0  0  0  0  0  0  0  0  0  0  0
   -3.1240   -4.8037    0.0000 C   0  0  0  0  0  0  0  0  0  0  0  0
   -3.1240   -6.3037    0.0000 N   0  0  0  0  0  0  0  0  0  0  0  0
   -1.8250   -4.0537    0.0000 O   0  0  0  0  0  0  0  0  0  0  0  0
   -1.7537   -2.4138    0.0000 C   0  0  0  0  0  0  0  0  0  0  0  0
   -0.7500   -1.2990    0.0000 C   0  0  0  0  0  0  0  0  0  0  0  0
    3.7500   -1.2990    0.0000 C   0  0  0  0  0  0  0  0  0  0  0  0
    5.2500   -1.2990    0.0000 C   0  0  0  0  0  0  0  0  0  0  0  0
    6.0000   -0.0000    0.0000 C   0  0  0  0  0  0  0  0  0  0  0  0
    5.2500    1.2990    0.0000 C   0  0  0  0  0  0  0  0  0  0  0  0
    3.7500    1.2990    0.0000 C   0  0  0  0  0  0  0  0  0  0  0  0
    3.0000   -0.0000    0.0000 C   0  0  0  0  0  0  0  0  0  0  0  0
  2  1  1  1
  2  3  1  0
  3  4  1  0
  4  5  2  0
  5  6  1  0
  6  7  2  0
  7  8  1  0
  8  9  1  0
  9 10  1  0
 10 11  1  0
 11 12  2  0
 12 13  1  0
 13 14  2  0
 14 15  1  0
 15 16  2  0
 16 17  1  0
 17 18  1  0
 17 19  2  0
 10 20  2  0
 20 21  1  0
  2 22  1  0
 22 23  2  0
 23 24  1  0
 24 25  2  0
 25 26  1  0
 26 27  2  0
 21  4  1  0
 27 22  1  0
 21  8  2  0
 16 11  1  0
M  END
>  <Compound_ID>  (478) 
CHEMBL3759085

>  <Molecule Name>  (478) 
nan

>  <Molecular Weight>  (478) 
374.47

>  <AlogP>  (478) 
4.63

>  <Smiles>  (478) 
C[C@@H](Nc1ncnc2sc(-c3ccccc3C(N)=O)cc12)c1ccccc1

>  <Standard Type>  (478) 
Inhibition

>  <Standard Relation>  (478) 
'='

>  <Standard Units>  (478) 
%

>  <Standard Value>  (478) 
6.0

>  <Assay ChEMBL ID>  (478) 
CHEMBL3761605

>  <Assay Description>  (478) 
Inhibition of SYK (unknown origin) at 500 nM

>  <BAO Format ID>  (478) 
BAO_0000357

>  <BAO Label>  (478) 
single protein format

>  <Assay Organism>  (478) 
Homo sapiens

>  <Target ChEMBL ID>  (478) 
CHEMBL2599

>  <Target Name>  (478) 
Tyrosine-protein kinase SYK

>  <Target Organism>  (478) 
Homo sapiens

>  <Target Type>  (478) 
SINGLE PROTEIN

>  <Document ChEMBL ID>  (478) 
CHEMBL3758163

>  <Source Description>  (478) 
Scientific Literature

>  <Document Journal>  (478) 
Eur J Med Chem

>  <Document Year>  (478) 
2016.0

>  <Active>  (478) 
0.0

>  <bits>  (478) 
<rdkit.DataStructs.cDataStructs.ExplicitBitVect object at 0x00000193F33E8120>

>  <Group>  (478) 
G2

$$$$

     RDKit          2D

 33 38  0  0  0  0  0  0  0  0999 V2000
    3.0000    0.0000    0.0000 C   0  0  0  0  0  0  0  0  0  0  0  0
    1.5000    0.0000    0.0000 C   0  0  0  0  0  0  0  0  0  0  0  0
    0.7500   -1.2990    0.0000 C   0  0  0  0  0  0  0  0  0  0  0  0
   -0.7500   -1.2990    0.0000 C   0  0  0  0  0  0  0  0  0  0  0  0
   -1.5000    0.0000    0.0000 C   0  0  0  0  0  0  0  0  0  0  0  0
   -2.9672    0.3119    0.0000 C   0  0  0  0  0  0  0  0  0  0  0  0
   -3.1240    1.8037    0.0000 C   0  0  0  0  0  0  0  0  0  0  0  0
   -4.4231    2.5537    0.0000 C   0  0  0  0  0  0  0  0  0  0  0  0
   -4.5798    4.0454    0.0000 N   0  0  0  0  0  0  0  0  0  0  0  0
   -6.0471    4.3573    0.0000 N   0  0  0  0  0  0  0  0  0  0  0  0
   -6.7971    3.0583    0.0000 C   0  0  0  0  0  0  0  0  0  0  0  0
   -8.2643    2.7464    0.0000 C   0  0  0  0  0  0  0  0  0  0  0  0
   -8.7278    1.3198    0.0000 C   0  0  0  0  0  0  0  0  0  0  0  0
   -7.7241    0.2051    0.0000 C   0  0  0  0  0  0  0  0  0  0  0  0
   -8.1876   -1.2215    0.0000 N   0  0  0  0  0  0  0  0  0  0  0  0
   -9.6549   -1.5334    0.0000 C   0  0  0  0  0  0  0  0  0  0  0  0
  -10.6586   -0.4186    0.0000 C   0  0  0  0  0  0  0  0  0  0  0  0
  -12.1258   -0.7305    0.0000 C   0  0  0  0  0  0  0  0  0  0  0  0
  -12.5893   -2.1571    0.0000 N   0  0  0  0  0  0  0  0  0  0  0  0
  -14.0565   -2.4690    0.0000 C   0  0  0  0  0  0  0  0  0  0  0  0
  -15.0602   -1.3542    0.0000 C   0  0  0  0  0  0  0  0  0  0  0  0
  -14.5967    0.0723    0.0000 C   0  0  0  0  0  0  0  0  0  0  0  0
  -15.6004    1.1871    0.0000 C   0  0  0  0  0  0  0  0  0  0  0  0
  -17.0676    0.8752    0.0000 C   0  0  0  0  0  0  0  0  0  0  0  0
  -17.5311   -0.5514    0.0000 C   0  0  0  0  0  0  0  0  0  0  0  0
  -16.5274   -1.6661    0.0000 C   0  0  0  0  0  0  0  0  0  0  0  0
  -11.5856   -3.2718    0.0000 C   0  0  0  0  0  0  0  0  0  0  0  0
  -10.1184   -2.9599    0.0000 C   0  0  0  0  0  0  0  0  0  0  0  0
   -6.2569    0.5170    0.0000 C   0  0  0  0  0  0  0  0  0  0  0  0
   -5.7934    1.9435    0.0000 C   0  0  0  0  0  0  0  0  0  0  0  0
   -1.7537    2.4138    0.0000 N   0  0  0  0  0  0  0  0  0  0  0  0
   -0.7500    1.2990    0.0000 C   0  0  0  0  0  0  0  0  0  0  0  0
    0.7500    1.2990    0.0000 C   0  0  0  0  0  0  0  0  0  0  0  0
  1  2  1  0
  2  3  2  0
  3  4  1  0
  4  5  2  0
  5  6  1  0
  6  7  2  0
  7  8  1  0
  8  9  2  0
  9 10  1  0
 10 11  1  0
 11 12  2  0
 12 13  1  0
 13 14  2  0
 14 15  1  0
 15 16  1  0
 16 17  1  0
 17 18  1  0
 18 19  1  0
 19 20  1  0
 20 21  1  0
 21 22  2  0
 22 23  1  0
 23 24  2  0
 24 25  1  0
 25 26  2  0
 19 27  1  0
 27 28  1  0
 14 29  1  0
 29 30  2  0
  7 31  1  0
 31 32  1  0
 32 33  2  0
 33  2  1  0
 32  5  1  0
 30  8  1  0
 30 11  1  0
 28 16  1  0
 26 21  1  0
M  END
>  <Compound_ID>  (479) 
CHEMBL1684543

>  <Molecule Name>  (479) 
nan

>  <Molecular Weight>  (479) 
435.58

>  <AlogP>  (479) 
6.10

>  <Smiles>  (479) 
Cc1ccc2cc(-c3n[nH]c4ccc(NC5CCN(Cc6ccccc6)CC5)cc34)[nH]c2c1

>  <Standard Type>  (479) 
Inhibition

>  <Standard Relation>  (479) 
'='

>  <Standard Units>  (479) 
%

>  <Standard Value>  (479) 
0.0

>  <Assay ChEMBL ID>  (479) 
CHEMBL1685876

>  <Assay Description>  (479) 
Inhibition of Syk at 0.1 uM

>  <BAO Format ID>  (479) 
BAO_0000357

>  <BAO Label>  (479) 
single protein format

>  <Assay Organism>  (479) 
None

>  <Target ChEMBL ID>  (479) 
CHEMBL2599

>  <Target Name>  (479) 
Tyrosine-protein kinase SYK

>  <Target Organism>  (479) 
Homo sapiens

>  <Target Type>  (479) 
SINGLE PROTEIN

>  <Document ChEMBL ID>  (479) 
CHEMBL1681705

>  <Source Description>  (479) 
Scientific Literature

>  <Document Journal>  (479) 
Bioorg Med Chem Lett

>  <Document Year>  (479) 
2011.0

>  <Active>  (479) 
0.0

>  <bits>  (479) 
<rdkit.DataStructs.cDataStructs.ExplicitBitVect object at 0x00000193F33E9E70>

>  <Group>  (479) 
G2

$$$$

     RDKit          2D

 25 28  0  0  0  0  0  0  0  0999 V2000
   -3.0000   -5.1962    0.0000 O   0  0  0  0  0  0  0  0  0  0  0  0
   -3.7500   -3.8971    0.0000 C   0  0  0  0  0  0  0  0  0  0  0  0
   -3.0000   -2.5981    0.0000 C   0  0  0  0  0  0  0  0  0  0  0  0
   -1.5000   -2.5981    0.0000 C   0  0  0  0  0  0  0  0  0  0  0  0
   -0.7500   -3.8971    0.0000 C   0  0  0  0  0  0  0  0  0  0  0  0
    0.7500   -3.8971    0.0000 C   0  0  0  0  0  0  0  0  0  0  0  0
    1.5000   -2.5981    0.0000 C   0  0  0  0  0  0  0  0  0  0  0  0
    0.7500   -1.2990    0.0000 C   0  0  0  0  0  0  0  0  0  0  0  0
    1.5000    0.0000    0.0000 C   0  0  0  0  0  0  0  0  0  0  0  0
    0.7500    1.2990    0.0000 N   0  0  0  0  0  0  0  0  0  0  0  0
   -0.7500    1.2990    0.0000 C   0  0  0  0  0  0  0  0  0  0  0  0
   -1.5000    0.0000    0.0000 C   0  0  0  0  0  0  0  0  0  0  0  0
   -0.7500   -1.2990    0.0000 C   0  0  0  0  0  0  0  0  0  0  0  0
   -5.2500   -3.8971    0.0000 N   0  0  0  0  0  0  0  0  0  0  0  0
   -6.0000   -5.1962    0.0000 C   0  0  0  0  0  0  0  0  0  0  0  0
   -5.3899   -6.5665    0.0000 S   0  0  0  0  0  0  0  0  0  0  0  0
   -6.5046   -7.5702    0.0000 C   0  0  0  0  0  0  0  0  0  0  0  0
   -7.8037   -6.8202    0.0000 C   0  0  0  0  0  0  0  0  0  0  0  0
   -9.1740   -7.4303    0.0000 Cl  0  0  0  0  0  0  0  0  0  0  0  0
   -7.4918   -5.3529    0.0000 C   0  0  0  0  0  0  0  0  0  0  0  0
   -8.4955   -4.2382    0.0000 C   0  0  0  0  0  0  0  0  0  0  0  0
   -9.9873   -4.3950    0.0000 N   0  0  0  0  0  0  0  0  0  0  0  0
  -10.5974   -3.0247    0.0000 C   0  0  0  0  0  0  0  0  0  0  0  0
   -9.4826   -2.0210    0.0000 N   0  0  0  0  0  0  0  0  0  0  0  0
   -8.1836   -2.7710    0.0000 N   0  0  0  0  0  0  0  0  0  0  0  0
  1  2  2  0
  2  3  1  0
  3  4  1  0
  4  5  2  0
  5  6  1  0
  6  7  2  0
  7  8  1  0
  8  9  2  0
  9 10  1  0
 10 11  2  0
 11 12  1  0
 12 13  2  0
  2 14  1  0
 14 15  1  0
 15 16  1  0
 16 17  1  0
 17 18  2  0
 18 19  1  0
 18 20  1  0
 20 21  1  0
 21 22  2  0
 22 23  1  0
 23 24  2  0
 24 25  1  0
 13  4  1  0
 20 15  2  0
 25 21  1  0
 13  8  1  0
M  END
>  <Compound_ID>  (480) 
CHEMBL1682017

>  <Molecule Name>  (480) 
nan

>  <Molecular Weight>  (480) 
369.84

>  <AlogP>  (480) 
3.92

>  <Smiles>  (480) 
O=C(Cc1cccc2cnccc12)Nc1scc(Cl)c1-c1ncn[nH]1

>  <Standard Type>  (480) 
Inhibition

>  <Standard Relation>  (480) 
'='

>  <Standard Units>  (480) 
%

>  <Standard Value>  (480) 
19.0

>  <Assay ChEMBL ID>  (480) 
CHEMBL1686805

>  <Assay Description>  (480) 
Inhibition of SYK at 10 uM

>  <BAO Format ID>  (480) 
BAO_0000357

>  <BAO Label>  (480) 
single protein format

>  <Assay Organism>  (480) 
None

>  <Target ChEMBL ID>  (480) 
CHEMBL2599

>  <Target Name>  (480) 
Tyrosine-protein kinase SYK

>  <Target Organism>  (480) 
Homo sapiens

>  <Target Type>  (480) 
SINGLE PROTEIN

>  <Document ChEMBL ID>  (480) 
CHEMBL1681717

>  <Source Description>  (480) 
Scientific Literature

>  <Document Journal>  (480) 
Bioorg Med Chem Lett

>  <Document Year>  (480) 
2011.0

>  <Active>  (480) 
0.0

>  <bits>  (480) 
<rdkit.DataStructs.cDataStructs.ExplicitBitVect object at 0x00000193F33EA0A0>

>  <Group>  (480) 
G2

$$$$

     RDKit          2D

 26 29  0  0  0  0  0  0  0  0999 V2000
    3.0000    0.0000    0.0000 C   0  0  0  0  0  0  0  0  0  0  0  0
    1.5000    0.0000    0.0000 N   0  0  0  0  0  0  0  0  0  0  0  0
    0.7500   -1.2990    0.0000 C   0  0  0  0  0  0  0  0  0  0  0  0
   -0.7500   -1.2990    0.0000 C   0  0  0  0  0  0  0  0  0  0  0  0
   -1.5000    0.0000    0.0000 C   0  0  0  0  0  0  0  0  0  0  0  0
   -3.0000    0.0000    0.0000 N   0  0  0  0  0  0  0  0  0  0  0  0
   -3.8817   -1.2135    0.0000 C   0  0  0  0  0  0  0  0  0  0  0  0
   -5.3083   -0.7500    0.0000 N   0  0  0  0  0  0  0  0  0  0  0  0
   -5.3083    0.7500    0.0000 C   0  0  0  0  0  0  0  0  0  0  0  0
   -6.5218    1.6317    0.0000 C   0  0  0  0  0  0  0  0  0  0  0  0
   -6.3650    3.1235    0.0000 C   0  0  0  0  0  0  0  0  0  0  0  0
   -7.5785    4.0051    0.0000 C   0  0  0  0  0  0  0  0  0  0  0  0
   -8.9488    3.3950    0.0000 C   0  0  0  0  0  0  0  0  0  0  0  0
  -10.1624    4.2767    0.0000 F   0  0  0  0  0  0  0  0  0  0  0  0
   -9.1056    1.9033    0.0000 C   0  0  0  0  0  0  0  0  0  0  0  0
   -7.8921    1.0216    0.0000 C   0  0  0  0  0  0  0  0  0  0  0  0
   -3.8817    1.2135    0.0000 C   0  0  0  0  0  0  0  0  0  0  0  0
   -3.4182    2.6401    0.0000 C   0  0  0  0  0  0  0  0  0  0  0  0
   -1.9509    2.9520    0.0000 C   0  0  0  0  0  0  0  0  0  0  0  0
   -1.4874    4.3786    0.0000 C   0  0  0  0  0  0  0  0  0  0  0  0
   -2.4911    5.4933    0.0000 N   0  0  0  0  0  0  0  0  0  0  0  0
   -3.9583    5.1814    0.0000 C   0  0  0  0  0  0  0  0  0  0  0  0
   -4.9620    6.2961    0.0000 N   0  0  0  0  0  0  0  0  0  0  0  0
   -4.4218    3.7548    0.0000 N   0  0  0  0  0  0  0  0  0  0  0  0
   -0.7500    1.2990    0.0000 C   0  0  0  0  0  0  0  0  0  0  0  0
    0.7500    1.2990    0.0000 C   0  0  0  0  0  0  0  0  0  0  0  0
  1  2  1  0
  2  3  1  0
  3  4  1  0
  4  5  1  0
  5  6  1  0
  6  7  1  0
  7  8  2  0
  8  9  1  0
  9 10  1  0
 10 11  2  0
 11 12  1  0
 12 13  2  0
 13 14  1  0
 13 15  1  0
 15 16  2  0
  9 17  2  0
 17 18  1  0
 18 19  2  0
 19 20  1  0
 20 21  2  0
 21 22  1  0
 22 23  1  0
 22 24  2  0
  5 25  1  0
 25 26  1  0
 26  2  1  0
 17  6  1  0
 24 18  1  0
 16 10  1  0
M  END
>  <Compound_ID>  (481) 
CHEMBL95207

>  <Molecule Name>  (481) 
nan

>  <Molecular Weight>  (481) 
352.42

>  <AlogP>  (481) 
3.00

>  <Smiles>  (481) 
CN1CCC(n2cnc(-c3ccc(F)cc3)c2-c2ccnc(N)n2)CC1

>  <Standard Type>  (481) 
Inhibition

>  <Standard Relation>  (481) 
'='

>  <Standard Units>  (481) 
%

>  <Standard Value>  (481) 
-1.2

>  <Assay ChEMBL ID>  (481) 
CHEMBL1962175

>  <Assay Description>  (481) 
GSK_PKIS: SYK mean inhibition at 1 uM [Nanosyn]

>  <BAO Format ID>  (481) 
BAO_0000357

>  <BAO Label>  (481) 
single protein format

>  <Assay Organism>  (481) 
None

>  <Target ChEMBL ID>  (481) 
CHEMBL2599

>  <Target Name>  (481) 
Tyrosine-protein kinase SYK

>  <Target Organism>  (481) 
Homo sapiens

>  <Target Type>  (481) 
SINGLE PROTEIN

>  <Document ChEMBL ID>  (481) 
CHEMBL1961873

>  <Source Description>  (481) 
GSK Published Kinase Inhibitor Set

>  <Document Journal>  (481) 
nan

>  <Document Year>  (481) 
nan

>  <Active>  (481) 
0.0

>  <bits>  (481) 
<rdkit.DataStructs.cDataStructs.ExplicitBitVect object at 0x00000193F33EB290>

>  <Group>  (481) 
G2

$$$$

     RDKit          2D

 39 43  0  0  0  0  0  0  0  0999 V2000
   -1.2990  -10.3573    0.0000 C   0  0  0  0  0  0  0  0  0  0  0  0
    0.0000   -9.6073    0.0000 O   0  0  0  0  0  0  0  0  0  0  0  0
    0.0000   -8.1073    0.0000 C   0  0  0  0  0  0  0  0  0  0  0  0
   -1.2990   -7.3573    0.0000 C   0  0  0  0  0  0  0  0  0  0  0  0
   -1.2990   -5.8573    0.0000 C   0  0  0  0  0  0  0  0  0  0  0  0
   -0.0000   -5.1073    0.0000 C   0  0  0  0  0  0  0  0  0  0  0  0
   -0.0000   -3.6073    0.0000 C   0  0  0  0  0  0  0  0  0  0  0  0
    1.2135   -2.7256    0.0000 O   0  0  0  0  0  0  0  0  0  0  0  0
    0.7500   -1.2990    0.0000 C   0  0  0  0  0  0  0  0  0  0  0  0
    1.5000    0.0000    0.0000 N   0  0  0  0  0  0  0  0  0  0  0  0
    0.7500    1.2990    0.0000 C   0  0  0  0  0  0  0  0  0  0  0  0
   -0.7500    1.2990    0.0000 N   0  0  0  0  0  0  0  0  0  0  0  0
   -1.5000    0.0000    0.0000 C   0  0  0  0  0  0  0  0  0  0  0  0
   -3.0000    0.0000    0.0000 N   0  0  0  0  0  0  0  0  0  0  0  0
   -0.7500   -1.2990    0.0000 C   0  0  0  0  0  0  0  0  0  0  0  0
   -1.2135   -2.7256    0.0000 C   0  0  0  0  0  0  0  0  0  0  0  0
   -2.6401   -3.1891    0.0000 C   0  0  0  0  0  0  0  0  0  0  0  0
   -3.7548   -2.1855    0.0000 C   0  0  0  0  0  0  0  0  0  0  0  0
   -5.1814   -2.6490    0.0000 C   0  0  0  0  0  0  0  0  0  0  0  0
   -5.4933   -4.1162    0.0000 C   0  0  0  0  0  0  0  0  0  0  0  0
   -6.9199   -4.5797    0.0000 N   0  0  0  0  0  0  0  0  0  0  0  0
   -8.0346   -3.5760    0.0000 C   0  0  0  0  0  0  0  0  0  0  0  0
   -7.7227   -2.1088    0.0000 O   0  0  0  0  0  0  0  0  0  0  0  0
   -9.4612   -4.0396    0.0000 N   0  0  0  0  0  0  0  0  0  0  0  0
  -10.5759   -3.0359    0.0000 C   0  0  0  0  0  0  0  0  0  0  0  0
  -10.2640   -1.5686    0.0000 C   0  0  0  0  0  0  0  0  0  0  0  0
  -11.3787   -0.5649    0.0000 C   0  0  0  0  0  0  0  0  0  0  0  0
  -11.0669    0.9023    0.0000 C   0  0  0  0  0  0  0  0  0  0  0  0
  -10.7550    2.3695    0.0000 F   0  0  0  0  0  0  0  0  0  0  0  0
   -9.5996    0.5904    0.0000 F   0  0  0  0  0  0  0  0  0  0  0  0
  -12.5341    1.2141    0.0000 F   0  0  0  0  0  0  0  0  0  0  0  0
  -12.8053   -1.0285    0.0000 C   0  0  0  0  0  0  0  0  0  0  0  0
  -13.1172   -2.4957    0.0000 C   0  0  0  0  0  0  0  0  0  0  0  0
  -12.0025   -3.4994    0.0000 C   0  0  0  0  0  0  0  0  0  0  0  0
  -12.3143   -4.9666    0.0000 F   0  0  0  0  0  0  0  0  0  0  0  0
   -4.3786   -5.1199    0.0000 C   0  0  0  0  0  0  0  0  0  0  0  0
   -2.9520   -4.6564    0.0000 C   0  0  0  0  0  0  0  0  0  0  0  0
    1.2990   -5.8573    0.0000 C   0  0  0  0  0  0  0  0  0  0  0  0
    1.2990   -7.3573    0.0000 C   0  0  0  0  0  0  0  0  0  0  0  0
  1  2  1  0
  2  3  1  0
  3  4  2  0
  4  5  1  0
  5  6  2  0
  6  7  1  0
  7  8  1  0
  8  9  1  0
  9 10  2  0
 10 11  1  0
 11 12  2  0
 12 13  1  0
 13 14  1  0
 13 15  2  0
 15 16  1  0
 16 17  1  0
 17 18  2  0
 18 19  1  0
 19 20  2  0
 20 21  1  0
 21 22  1  0
 22 23  2  0
 22 24  1  0
 24 25  1  0
 25 26  2  0
 26 27  1  0
 27 28  1  0
 28 29  1  0
 28 30  1  0
 28 31  1  0
 27 32  2  0
 32 33  1  0
 33 34  2  0
 34 35  1  0
 20 36  1  0
 36 37  2  0
  6 38  1  0
 38 39  2  0
 39  3  1  0
 16  7  2  0
 37 17  1  0
 15  9  1  0
 34 25  1  0
M  END
>  <Compound_ID>  (482) 
CHEMBL1909396

>  <Molecule Name>  (482) 
GW768505A

>  <Molecular Weight>  (482) 
573.93

>  <AlogP>  (482) 
6.95

>  <Smiles>  (482) 
COc1ccc(-c2oc3ncnc(N)c3c2-c2ccc(NC(=O)Nc3cc(C(F)(F)F)ccc3F)cc2)cc1

>  <Standard Type>  (482) 
Inhibition

>  <Standard Relation>  (482) 
'='

>  <Standard Units>  (482) 
%

>  <Standard Value>  (482) 
-0.9

>  <Assay ChEMBL ID>  (482) 
CHEMBL1962174

>  <Assay Description>  (482) 
GSK_PKIS: SYK mean inhibition at 0.1 uM [Nanosyn]

>  <BAO Format ID>  (482) 
BAO_0000357

>  <BAO Label>  (482) 
single protein format

>  <Assay Organism>  (482) 
None

>  <Target ChEMBL ID>  (482) 
CHEMBL2599

>  <Target Name>  (482) 
Tyrosine-protein kinase SYK

>  <Target Organism>  (482) 
Homo sapiens

>  <Target Type>  (482) 
SINGLE PROTEIN

>  <Document ChEMBL ID>  (482) 
CHEMBL1961873

>  <Source Description>  (482) 
GSK Published Kinase Inhibitor Set

>  <Document Journal>  (482) 
nan

>  <Document Year>  (482) 
nan

>  <Active>  (482) 
0.0

>  <bits>  (482) 
<rdkit.DataStructs.cDataStructs.ExplicitBitVect object at 0x00000193F33EB370>

>  <Group>  (482) 
G2

$$$$

     RDKit          2D

 27 29  0  0  0  0  0  0  0  0999 V2000
    5.2500    1.2990    0.0000 C   0  0  0  0  0  0  0  0  0  0  0  0
    4.5000    0.0000    0.0000 C   0  0  0  0  0  0  0  0  0  0  0  0
    3.0000    0.0000    0.0000 S   0  0  0  0  0  0  0  0  0  0  0  0
    3.0000    1.5000    0.0000 O   0  0  0  0  0  0  0  0  0  0  0  0
    3.0000   -1.5000    0.0000 O   0  0  0  0  0  0  0  0  0  0  0  0
    1.5000    0.0000    0.0000 C   0  0  0  0  0  0  0  0  0  0  0  0
    0.7500   -1.2990    0.0000 C   0  0  0  0  0  0  0  0  0  0  0  0
   -0.7500   -1.2990    0.0000 C   0  0  0  0  0  0  0  0  0  0  0  0
   -1.5000    0.0000    0.0000 C   0  0  0  0  0  0  0  0  0  0  0  0
   -3.0000    0.0000    0.0000 O   0  0  0  0  0  0  0  0  0  0  0  0
   -3.7500   -1.2990    0.0000 C   0  0  0  0  0  0  0  0  0  0  0  0
   -0.7500    1.2990    0.0000 C   0  0  0  0  0  0  0  0  0  0  0  0
   -1.5000    2.5981    0.0000 N   0  0  0  0  0  0  0  0  0  0  0  0
   -0.7500    3.8971    0.0000 C   0  0  0  0  0  0  0  0  0  0  0  0
   -1.3601    5.2674    0.0000 N   0  0  0  0  0  0  0  0  0  0  0  0
   -0.2454    6.2711    0.0000 C   0  0  0  0  0  0  0  0  0  0  0  0
    1.0537    5.5211    0.0000 C   0  0  0  0  0  0  0  0  0  0  0  0
    2.4240    6.1312    0.0000 C   0  0  0  0  0  0  0  0  0  0  0  0
    3.6375    5.2496    0.0000 C   0  0  0  0  0  0  0  0  0  0  0  0
    5.0078    5.8597    0.0000 C   0  0  0  0  0  0  0  0  0  0  0  0
    5.1646    7.3514    0.0000 C   0  0  0  0  0  0  0  0  0  0  0  0
    3.9511    8.2331    0.0000 C   0  0  0  0  0  0  0  0  0  0  0  0
    4.1079    9.7249    0.0000 O   0  0  0  0  0  0  0  0  0  0  0  0
    5.4782   10.3350    0.0000 C   0  0  0  0  0  0  0  0  0  0  0  0
    2.5808    7.6230    0.0000 C   0  0  0  0  0  0  0  0  0  0  0  0
    0.7418    4.0539    0.0000 O   0  0  0  0  0  0  0  0  0  0  0  0
    0.7500    1.2990    0.0000 C   0  0  0  0  0  0  0  0  0  0  0  0
  1  2  1  0
  2  3  1  0
  3  4  2  0
  3  5  2  0
  3  6  1  0
  6  7  2  0
  7  8  1  0
  8  9  2  0
  9 10  1  0
 10 11  1  0
  9 12  1  0
 12 13  1  0
 13 14  1  0
 14 15  2  0
 15 16  1  0
 16 17  2  0
 17 18  1  0
 18 19  2  0
 19 20  1  0
 20 21  2  0
 21 22  1  0
 22 23  1  0
 23 24  1  0
 22 25  2  0
 17 26  1  0
 12 27  2  0
 27  6  1  0
 26 14  1  0
 25 18  1  0
M  END
>  <Compound_ID>  (483) 
CHEMBL179311

>  <Molecule Name>  (483) 
GW580509X

>  <Molecular Weight>  (483) 
388.45

>  <AlogP>  (483) 
3.90

>  <Smiles>  (483) 
CCS(=O)(=O)c1ccc(OC)c(Nc2ncc(-c3cccc(OC)c3)o2)c1

>  <Standard Type>  (483) 
Inhibition

>  <Standard Relation>  (483) 
'='

>  <Standard Units>  (483) 
%

>  <Standard Value>  (483) 
-0.11

>  <Assay ChEMBL ID>  (483) 
CHEMBL1962174

>  <Assay Description>  (483) 
GSK_PKIS: SYK mean inhibition at 0.1 uM [Nanosyn]

>  <BAO Format ID>  (483) 
BAO_0000357

>  <BAO Label>  (483) 
single protein format

>  <Assay Organism>  (483) 
None

>  <Target ChEMBL ID>  (483) 
CHEMBL2599

>  <Target Name>  (483) 
Tyrosine-protein kinase SYK

>  <Target Organism>  (483) 
Homo sapiens

>  <Target Type>  (483) 
SINGLE PROTEIN

>  <Document ChEMBL ID>  (483) 
CHEMBL1961873

>  <Source Description>  (483) 
GSK Published Kinase Inhibitor Set

>  <Document Journal>  (483) 
nan

>  <Document Year>  (483) 
nan

>  <Active>  (483) 
0.0

>  <bits>  (483) 
<rdkit.DataStructs.cDataStructs.ExplicitBitVect object at 0x00000193F33EA9D0>

>  <Group>  (483) 
G2

$$$$

     RDKit          2D

 26 29  0  0  0  0  0  0  0  0999 V2000
   -2.6401   -3.1891    0.0000 C   0  0  0  0  0  0  0  0  0  0  0  0
   -1.2135   -2.7256    0.0000 C   0  0  0  0  0  0  0  0  0  0  0  0
   -0.0000   -3.6073    0.0000 N   0  0  0  0  0  0  0  0  0  0  0  0
    1.2135   -2.7256    0.0000 C   0  0  0  0  0  0  0  0  0  0  0  0
    2.6401   -3.1891    0.0000 C   0  0  0  0  0  0  0  0  0  0  0  0
    2.9520   -4.6564    0.0000 C   0  0  0  0  0  0  0  0  0  0  0  0
    4.3786   -5.1199    0.0000 C   0  0  0  0  0  0  0  0  0  0  0  0
    5.4933   -4.1162    0.0000 C   0  0  0  0  0  0  0  0  0  0  0  0
    5.1814   -2.6490    0.0000 C   0  0  0  0  0  0  0  0  0  0  0  0
    3.7548   -2.1855    0.0000 C   0  0  0  0  0  0  0  0  0  0  0  0
    0.7500   -1.2990    0.0000 N   0  0  0  0  0  0  0  0  0  0  0  0
    1.5000    0.0000    0.0000 N   0  0  0  0  0  0  0  0  0  0  0  0
    0.7500    1.2990    0.0000 C   0  0  0  0  0  0  0  0  0  0  0  0
    1.5000    2.5981    0.0000 N   0  0  0  0  0  0  0  0  0  0  0  0
    3.0000    2.5981    0.0000 C   0  0  0  0  0  0  0  0  0  0  0  0
    3.7500    3.8971    0.0000 C   0  0  0  0  0  0  0  0  0  0  0  0
    5.2500    3.8971    0.0000 C   0  0  0  0  0  0  0  0  0  0  0  0
    6.0000    5.1962    0.0000 N   0  0  0  0  0  0  0  0  0  0  0  0
    7.5000    5.1962    0.0000 C   0  0  0  0  0  0  0  0  0  0  0  0
    8.2500    6.4952    0.0000 C   0  0  0  0  0  0  0  0  0  0  0  0
    7.5000    7.7942    0.0000 O   0  0  0  0  0  0  0  0  0  0  0  0
    6.0000    7.7942    0.0000 C   0  0  0  0  0  0  0  0  0  0  0  0
    5.2500    6.4952    0.0000 C   0  0  0  0  0  0  0  0  0  0  0  0
   -0.7500    1.2990    0.0000 N   0  0  0  0  0  0  0  0  0  0  0  0
   -1.5000    0.0000    0.0000 C   0  0  0  0  0  0  0  0  0  0  0  0
   -0.7500   -1.2990    0.0000 C   0  0  0  0  0  0  0  0  0  0  0  0
  1  2  1  0
  2  3  1  0
  3  4  2  0
  4  5  1  0
  5  6  2  0
  6  7  1  0
  7  8  2  0
  8  9  1  0
  9 10  2  0
  4 11  1  0
 11 12  1  0
 12 13  2  0
 13 14  1  0
 14 15  1  0
 15 16  1  0
 16 17  1  0
 17 18  1  0
 18 19  1  0
 19 20  1  0
 20 21  1  0
 21 22  1  0
 22 23  1  0
 13 24  1  0
 24 25  2  0
 25 26  1  0
 26  2  2  0
 10  5  1  0
 26 11  1  0
 23 18  1  0
M  END
>  <Compound_ID>  (484) 
CHEMBL486124

>  <Molecule Name>  (484) 
GW874091X

>  <Molecular Weight>  (484) 
352.44

>  <AlogP>  (484) 
2.23

>  <Smiles>  (484) 
Cc1nc(-c2ccccc2)n2nc(NCCCN3CCOCC3)ncc12

>  <Standard Type>  (484) 
Inhibition

>  <Standard Relation>  (484) 
'='

>  <Standard Units>  (484) 
%

>  <Standard Value>  (484) 
3.52

>  <Assay ChEMBL ID>  (484) 
CHEMBL1962175

>  <Assay Description>  (484) 
GSK_PKIS: SYK mean inhibition at 1 uM [Nanosyn]

>  <BAO Format ID>  (484) 
BAO_0000357

>  <BAO Label>  (484) 
single protein format

>  <Assay Organism>  (484) 
None

>  <Target ChEMBL ID>  (484) 
CHEMBL2599

>  <Target Name>  (484) 
Tyrosine-protein kinase SYK

>  <Target Organism>  (484) 
Homo sapiens

>  <Target Type>  (484) 
SINGLE PROTEIN

>  <Document ChEMBL ID>  (484) 
CHEMBL1961873

>  <Source Description>  (484) 
GSK Published Kinase Inhibitor Set

>  <Document Journal>  (484) 
nan

>  <Document Year>  (484) 
nan

>  <Active>  (484) 
0.0

>  <bits>  (484) 
<rdkit.DataStructs.cDataStructs.ExplicitBitVect object at 0x00000193F33E9310>

>  <Group>  (484) 
G2

$$$$

     RDKit          2D

 28 30  0  0  0  0  0  0  0  0999 V2000
   -3.7548   -2.1855    0.0000 C   0  0  0  0  0  0  0  0  0  0  0  0
   -2.6401   -3.1891    0.0000 C   0  0  0  0  0  0  0  0  0  0  0  0
   -1.2135   -2.7256    0.0000 N   0  0  0  0  0  0  0  0  0  0  0  0
   -0.0000   -3.6073    0.0000 C   0  0  0  0  0  0  0  0  0  0  0  0
   -0.0000   -5.1073    0.0000 C   0  0  0  0  0  0  0  0  0  0  0  0
    1.2135   -5.9890    0.0000 N   0  0  0  0  0  0  0  0  0  0  0  0
    0.7500   -7.4156    0.0000 O   0  0  0  0  0  0  0  0  0  0  0  0
   -0.7500   -7.4156    0.0000 N   0  0  0  0  0  0  0  0  0  0  0  0
   -1.2135   -5.9890    0.0000 C   0  0  0  0  0  0  0  0  0  0  0  0
   -2.6401   -5.5255    0.0000 N   0  0  0  0  0  0  0  0  0  0  0  0
    1.2135   -2.7256    0.0000 N   0  0  0  0  0  0  0  0  0  0  0  0
    0.7500   -1.2990    0.0000 C   0  0  0  0  0  0  0  0  0  0  0  0
    1.5000    0.0000    0.0000 C   0  0  0  0  0  0  0  0  0  0  0  0
    3.0000    0.0000    0.0000 C   0  0  0  0  0  0  0  0  0  0  0  0
    4.5000    0.0000    0.0000 C   0  0  0  0  0  0  0  0  0  0  0  0
    6.0000    0.0000    0.0000 C   0  0  0  0  0  0  0  0  0  0  0  0
    6.0000   -1.5000    0.0000 C   0  0  0  0  0  0  0  0  0  0  0  0
    6.0000    1.5000    0.0000 C   0  0  0  0  0  0  0  0  0  0  0  0
    7.5000    0.0000    0.0000 O   0  0  0  0  0  0  0  0  0  0  0  0
    0.7500    1.2990    0.0000 N   0  0  0  0  0  0  0  0  0  0  0  0
   -0.7500    1.2990    0.0000 C   0  0  0  0  0  0  0  0  0  0  0  0
   -1.5000    2.5981    0.0000 O   0  0  0  0  0  0  0  0  0  0  0  0
   -0.7500    3.8971    0.0000 C   0  0  0  0  0  0  0  0  0  0  0  0
   -1.5000    5.1962    0.0000 C   0  0  0  0  0  0  0  0  0  0  0  0
   -0.7500    6.4952    0.0000 N   0  0  0  0  0  0  0  0  0  0  0  0
   -1.5000    7.7942    0.0000 C   0  0  0  0  0  0  0  0  0  0  0  0
   -1.5000    0.0000    0.0000 C   0  0  0  0  0  0  0  0  0  0  0  0
   -0.7500   -1.2990    0.0000 C   0  0  0  0  0  0  0  0  0  0  0  0
  1  2  1  0
  2  3  1  0
  3  4  1  0
  4  5  1  0
  5  6  2  0
  6  7  1  0
  7  8  1  0
  8  9  2  0
  9 10  1  0
  4 11  2  0
 11 12  1  0
 12 13  2  0
 13 14  1  0
 14 15  3  0
 15 16  1  0
 16 17  1  0
 16 18  1  0
 16 19  1  0
 13 20  1  0
 20 21  2  0
 21 22  1  0
 22 23  1  0
 23 24  1  0
 24 25  1  0
 25 26  1  0
 21 27  1  0
 27 28  2  0
 28  3  1  0
  9  5  1  0
 28 12  1  0
M  END
>  <Compound_ID>  (485) 
CHEMBL1909350

>  <Molecule Name>  (485) 
GSK-949675A

>  <Molecular Weight>  (485) 
421.89

>  <AlogP>  (485) 
0.80

>  <Smiles>  (485) 
CCn1c(-c2nonc2N)nc2c(C#CC(C)(C)O)nc(OCCNC)cc21

>  <Standard Type>  (485) 
Inhibition

>  <Standard Relation>  (485) 
'='

>  <Standard Units>  (485) 
%

>  <Standard Value>  (485) 
0.91

>  <Assay ChEMBL ID>  (485) 
CHEMBL1962175

>  <Assay Description>  (485) 
GSK_PKIS: SYK mean inhibition at 1 uM [Nanosyn]

>  <BAO Format ID>  (485) 
BAO_0000357

>  <BAO Label>  (485) 
single protein format

>  <Assay Organism>  (485) 
None

>  <Target ChEMBL ID>  (485) 
CHEMBL2599

>  <Target Name>  (485) 
Tyrosine-protein kinase SYK

>  <Target Organism>  (485) 
Homo sapiens

>  <Target Type>  (485) 
SINGLE PROTEIN

>  <Document ChEMBL ID>  (485) 
CHEMBL1961873

>  <Source Description>  (485) 
GSK Published Kinase Inhibitor Set

>  <Document Journal>  (485) 
nan

>  <Document Year>  (485) 
nan

>  <Active>  (485) 
0.0

>  <bits>  (485) 
<rdkit.DataStructs.cDataStructs.ExplicitBitVect object at 0x00000193F33E94D0>

>  <Group>  (485) 
G2

$$$$

     RDKit          2D

 31 34  0  0  0  0  0  0  0  0999 V2000
    3.0000    0.0000    0.0000 N   0  0  0  0  0  0  0  0  0  0  0  0
    1.5000    0.0000    0.0000 C   0  0  0  0  0  0  0  0  0  0  0  0
    0.7500   -1.2990    0.0000 N   0  0  0  0  0  0  0  0  0  0  0  0
   -0.7500   -1.2990    0.0000 C   0  0  0  0  0  0  0  0  0  0  0  0
   -1.5000    0.0000    0.0000 N   0  0  0  0  0  0  0  0  0  0  0  0
   -0.7500    1.2990    0.0000 C   0  0  0  0  0  0  0  0  0  0  0  0
   -1.2135    2.7256    0.0000 O   0  0  0  0  0  0  0  0  0  0  0  0
   -0.0000    3.6073    0.0000 C   0  0  0  0  0  0  0  0  0  0  0  0
    1.2135    2.7256    0.0000 C   0  0  0  0  0  0  0  0  0  0  0  0
    2.6401    3.1891    0.0000 C   0  0  0  0  0  0  0  0  0  0  0  0
    3.7548    2.1855    0.0000 C   0  0  0  0  0  0  0  0  0  0  0  0
    5.1814    2.6490    0.0000 C   0  0  0  0  0  0  0  0  0  0  0  0
    5.4933    4.1162    0.0000 C   0  0  0  0  0  0  0  0  0  0  0  0
    6.9199    4.5797    0.0000 N   0  0  0  0  0  0  0  0  0  0  0  0
    8.0346    3.5760    0.0000 C   0  0  0  0  0  0  0  0  0  0  0  0
    7.7227    2.1088    0.0000 O   0  0  0  0  0  0  0  0  0  0  0  0
    9.4612    4.0396    0.0000 N   0  0  0  0  0  0  0  0  0  0  0  0
   10.5759    3.0359    0.0000 C   0  0  0  0  0  0  0  0  0  0  0  0
   10.2640    1.5686    0.0000 C   0  0  0  0  0  0  0  0  0  0  0  0
   11.3787    0.5649    0.0000 C   0  0  0  0  0  0  0  0  0  0  0  0
   11.0669   -0.9023    0.0000 C   0  0  0  0  0  0  0  0  0  0  0  0
   10.7550   -2.3695    0.0000 F   0  0  0  0  0  0  0  0  0  0  0  0
    9.5996   -0.5904    0.0000 F   0  0  0  0  0  0  0  0  0  0  0  0
   12.5341   -1.2141    0.0000 F   0  0  0  0  0  0  0  0  0  0  0  0
   12.8053    1.0285    0.0000 C   0  0  0  0  0  0  0  0  0  0  0  0
   13.1172    2.4957    0.0000 C   0  0  0  0  0  0  0  0  0  0  0  0
   12.0025    3.4994    0.0000 C   0  0  0  0  0  0  0  0  0  0  0  0
   12.3143    4.9666    0.0000 F   0  0  0  0  0  0  0  0  0  0  0  0
    4.3786    5.1199    0.0000 C   0  0  0  0  0  0  0  0  0  0  0  0
    2.9520    4.6564    0.0000 C   0  0  0  0  0  0  0  0  0  0  0  0
    0.7500    1.2990    0.0000 C   0  0  0  0  0  0  0  0  0  0  0  0
  1  2  1  0
  2  3  2  0
  3  4  1  0
  4  5  2  0
  5  6  1  0
  6  7  1  0
  7  8  1  0
  8  9  2  0
  9 10  1  0
 10 11  2  0
 11 12  1  0
 12 13  2  0
 13 14  1  0
 14 15  1  0
 15 16  2  0
 15 17  1  0
 17 18  1  0
 18 19  2  0
 19 20  1  0
 20 21  1  0
 21 22  1  0
 21 23  1  0
 21 24  1  0
 20 25  2  0
 25 26  1  0
 26 27  2  0
 27 28  1  0
 13 29  1  0
 29 30  2  0
  9 31  1  0
 31  2  1  0
 31  6  2  0
 30 10  1  0
 27 18  1  0
M  END
>  <Compound_ID>  (486) 
CHEMBL247228

>  <Molecule Name>  (486) 
GW770249X

>  <Molecular Weight>  (486) 
431.35

>  <AlogP>  (486) 
5.27

>  <Smiles>  (486) 
Nc1ncnc2occ(-c3ccc(NC(=O)Nc4cc(C(F)(F)F)ccc4F)cc3)c12

>  <Standard Type>  (486) 
Inhibition

>  <Standard Relation>  (486) 
'='

>  <Standard Units>  (486) 
%

>  <Standard Value>  (486) 
-10.45

>  <Assay ChEMBL ID>  (486) 
CHEMBL1962175

>  <Assay Description>  (486) 
GSK_PKIS: SYK mean inhibition at 1 uM [Nanosyn]

>  <BAO Format ID>  (486) 
BAO_0000357

>  <BAO Label>  (486) 
single protein format

>  <Assay Organism>  (486) 
None

>  <Target ChEMBL ID>  (486) 
CHEMBL2599

>  <Target Name>  (486) 
Tyrosine-protein kinase SYK

>  <Target Organism>  (486) 
Homo sapiens

>  <Target Type>  (486) 
SINGLE PROTEIN

>  <Document ChEMBL ID>  (486) 
CHEMBL1961873

>  <Source Description>  (486) 
GSK Published Kinase Inhibitor Set

>  <Document Journal>  (486) 
nan

>  <Document Year>  (486) 
nan

>  <Active>  (486) 
0.0

>  <bits>  (486) 
<rdkit.DataStructs.cDataStructs.ExplicitBitVect object at 0x00000193F33EB920>

>  <Group>  (486) 
G2

$$$$

     RDKit          2D

 39 41  0  0  0  0  0  0  0  0999 V2000
    2.5981  -17.1073    0.0000 C   0  0  0  0  0  0  0  0  0  0  0  0
    3.8971  -16.3573    0.0000 C   0  0  0  0  0  0  0  0  0  0  0  0
    5.1962  -17.1073    0.0000 O   0  0  0  0  0  0  0  0  0  0  0  0
    3.8971  -14.8573    0.0000 O   0  0  0  0  0  0  0  0  0  0  0  0
    5.1962  -14.1073    0.0000 C   0  0  0  0  0  0  0  0  0  0  0  0
    5.1962  -12.6073    0.0000 C   0  0  0  0  0  0  0  0  0  0  0  0
    3.8971  -11.8573    0.0000 O   0  0  0  0  0  0  0  0  0  0  0  0
    3.8971  -10.3573    0.0000 C   0  0  0  0  0  0  0  0  0  0  0  0
    2.5981   -9.6073    0.0000 N   0  0  0  0  0  0  0  0  0  0  0  0
    2.5981   -8.1073    0.0000 C   0  0  0  0  0  0  0  0  0  0  0  0
    3.8971   -7.3573    0.0000 O   0  0  0  0  0  0  0  0  0  0  0  0
    1.2990   -7.3573    0.0000 C   0  0  0  0  0  0  0  0  0  0  0  0
    1.2990   -5.8573    0.0000 C   0  0  0  0  0  0  0  0  0  0  0  0
   -0.0000   -5.1073    0.0000 C   0  0  0  0  0  0  0  0  0  0  0  0
   -0.0000   -3.6073    0.0000 N   0  0  0  0  0  0  0  0  0  0  0  0
    1.2135   -2.7256    0.0000 Se  0  0  0  0  0  2  0  0  0  0  0  0
    0.7500   -1.2990    0.0000 C   0  0  0  0  0  0  0  0  0  0  0  0
    1.5000    0.0000    0.0000 C   0  0  0  0  0  0  0  0  0  0  0  0
    0.7500    1.2990    0.0000 C   0  0  0  0  0  0  0  0  0  0  0  0
   -0.7500    1.2990    0.0000 C   0  0  0  0  0  0  0  0  0  0  0  0
   -1.5000    0.0000    0.0000 C   0  0  0  0  0  0  0  0  0  0  0  0
   -0.7500   -1.2990    0.0000 C   0  0  0  0  0  0  0  0  0  0  0  0
   -1.2135   -2.7256    0.0000 C   0  0  0  0  0  0  0  0  0  0  0  0
   -2.6401   -3.1891    0.0000 O   0  0  0  0  0  0  0  0  0  0  0  0
    5.1962   -9.6073    0.0000 C   0  0  0  0  0  0  0  0  0  0  0  0
    5.1962   -8.1073    0.0000 O   0  0  0  0  0  0  0  0  0  0  0  0
    6.4952   -7.3573    0.0000 C   0  0  0  0  0  0  0  0  0  0  0  0
    6.4952   -5.8573    0.0000 C   0  0  0  0  0  0  0  0  0  0  0  0
    7.7942   -8.1073    0.0000 O   0  0  0  0  0  0  0  0  0  0  0  0
    6.4952  -10.3573    0.0000 C   0  0  0  0  0  0  0  0  0  0  0  0
    7.7942   -9.6073    0.0000 O   0  0  0  0  0  0  0  0  0  0  0  0
    9.0933  -10.3573    0.0000 C   0  0  0  0  0  0  0  0  0  0  0  0
   10.3923   -9.6073    0.0000 C   0  0  0  0  0  0  0  0  0  0  0  0
    9.0933  -11.8573    0.0000 O   0  0  0  0  0  0  0  0  0  0  0  0
    6.4952  -11.8573    0.0000 C   0  0  0  0  0  0  0  0  0  0  0  0
    7.7942  -12.6073    0.0000 O   0  0  0  0  0  0  0  0  0  0  0  0
    7.7942  -14.1073    0.0000 C   0  0  0  0  0  0  0  0  0  0  0  0
    9.0933  -14.8573    0.0000 C   0  0  0  0  0  0  0  0  0  0  0  0
    6.4952  -14.8573    0.0000 O   0  0  0  0  0  0  0  0  0  0  0  0
  1  2  1  0
  2  3  2  0
  2  4  1  0
  4  5  1  0
  6  5  1  1
  6  7  1  0
  7  8  1  0
  8  9  1  1
  9 10  1  0
 10 11  2  0
 10 12  1  0
 12 13  1  0
 13 14  1  0
 14 15  1  0
 15 16  1  0
 16 17  1  0
 17 18  2  0
 18 19  1  0
 19 20  2  0
 20 21  1  0
 21 22  2  0
 22 23  1  0
 23 24  2  0
  8 25  1  0
 25 26  1  6
 26 27  1  0
 27 28  1  0
 27 29  2  0
 25 30  1  0
 30 31  1  1
 31 32  1  0
 32 33  1  0
 32 34  2  0
 30 35  1  0
 35 36  1  6
 36 37  1  0
 37 38  1  0
 37 39  2  0
 35  6  1  0
 23 15  1  0
 22 17  1  0
M  END
>  <Compound_ID>  (487) 
CHEMBL1940997

>  <Molecule Name>  (487) 
nan

>  <Molecular Weight>  (487) 
613.48

>  <AlogP>  (487) 
None

>  <Smiles>  (487) 
CC(=O)OC[C@H]1O[C@@H](NC(=O)CCCn2[se]c3ccccc3c2=O)[C@H](OC(C)=O)[C@@H](OC(C)=O)[C@@H]1OC(C)=O

>  <Standard Type>  (487) 
Inhibition

>  <Standard Relation>  (487) 
'='

>  <Standard Units>  (487) 
%

>  <Standard Value>  (487) 
0.0

>  <Assay ChEMBL ID>  (487) 
CHEMBL1943940

>  <Assay Description>  (487) 
Inhibition of SYK at 1 uM

>  <BAO Format ID>  (487) 
BAO_0000357

>  <BAO Label>  (487) 
single protein format

>  <Assay Organism>  (487) 
None

>  <Target ChEMBL ID>  (487) 
CHEMBL2599

>  <Target Name>  (487) 
Tyrosine-protein kinase SYK

>  <Target Organism>  (487) 
Homo sapiens

>  <Target Type>  (487) 
SINGLE PROTEIN

>  <Document ChEMBL ID>  (487) 
CHEMBL1938284

>  <Source Description>  (487) 
Scientific Literature

>  <Document Journal>  (487) 
Eur J Med Chem

>  <Document Year>  (487) 
2012.0

>  <Active>  (487) 
0.0

>  <bits>  (487) 
<rdkit.DataStructs.cDataStructs.ExplicitBitVect object at 0x00000193F33E8BA0>

>  <Group>  (487) 
G2

$$$$

     RDKit          2D

 27 29  0  0  0  0  0  0  0  0999 V2000
    3.8971   -7.3573    0.0000 O   0  0  0  0  0  0  0  0  0  0  0  0
    2.5981   -8.1073    0.0000 C   0  0  0  0  0  0  0  0  0  0  0  0
    1.2990   -7.3573    0.0000 C   0  0  0  0  0  0  0  0  0  0  0  0
    1.2990   -5.8573    0.0000 C   0  0  0  0  0  0  0  0  0  0  0  0
   -0.0000   -5.1073    0.0000 C   0  0  0  0  0  0  0  0  0  0  0  0
   -0.0000   -3.6073    0.0000 N   0  0  0  0  0  0  0  0  0  0  0  0
    1.2135   -2.7256    0.0000 Se  0  0  0  0  0  2  0  0  0  0  0  0
    0.7500   -1.2990    0.0000 C   0  0  0  0  0  0  0  0  0  0  0  0
    1.5000    0.0000    0.0000 C   0  0  0  0  0  0  0  0  0  0  0  0
    0.7500    1.2990    0.0000 C   0  0  0  0  0  0  0  0  0  0  0  0
   -0.7500    1.2990    0.0000 C   0  0  0  0  0  0  0  0  0  0  0  0
   -1.5000    0.0000    0.0000 C   0  0  0  0  0  0  0  0  0  0  0  0
   -0.7500   -1.2990    0.0000 C   0  0  0  0  0  0  0  0  0  0  0  0
   -1.2135   -2.7256    0.0000 C   0  0  0  0  0  0  0  0  0  0  0  0
   -2.6401   -3.1891    0.0000 O   0  0  0  0  0  0  0  0  0  0  0  0
    2.5981   -9.6073    0.0000 N   0  0  0  0  0  0  0  0  0  0  0  0
    3.8971  -10.3573    0.0000 C   0  0  0  0  0  0  0  0  0  0  0  0
    3.8971  -11.8573    0.0000 O   0  0  0  0  0  0  0  0  0  0  0  0
    5.1962  -12.6073    0.0000 C   0  0  0  0  0  0  0  0  0  0  0  0
    5.1962  -14.1073    0.0000 C   0  0  0  0  0  0  0  0  0  0  0  0
    3.8971  -14.8573    0.0000 O   0  0  0  0  0  0  0  0  0  0  0  0
    6.4952  -11.8573    0.0000 C   0  0  0  0  0  0  0  0  0  0  0  0
    7.7942  -12.6073    0.0000 O   0  0  0  0  0  0  0  0  0  0  0  0
    6.4952  -10.3573    0.0000 C   0  0  0  0  0  0  0  0  0  0  0  0
    7.7942   -9.6073    0.0000 O   0  0  0  0  0  0  0  0  0  0  0  0
    5.1962   -9.6073    0.0000 C   0  0  0  0  0  0  0  0  0  0  0  0
    5.1962   -8.1073    0.0000 O   0  0  0  0  0  0  0  0  0  0  0  0
  1  2  2  0
  2  3  1  0
  3  4  1  0
  4  5  1  0
  5  6  1  0
  6  7  1  0
  7  8  1  0
  8  9  2  0
  9 10  1  0
 10 11  2  0
 11 12  1  0
 12 13  2  0
 13 14  1  0
 14 15  2  0
  2 16  1  0
 17 16  1  1
 17 18  1  0
 18 19  1  0
 19 20  1  1
 20 21  1  0
 19 22  1  0
 22 23  1  6
 22 24  1  0
 24 25  1  1
 24 26  1  0
 26 27  1  6
 14  6  1  0
 26 17  1  0
 13  8  1  0
M  END
>  <Compound_ID>  (488) 
CHEMBL1940999

>  <Molecule Name>  (488) 
nan

>  <Molecular Weight>  (488) 
445.33

>  <AlogP>  (488) 
None

>  <Smiles>  (488) 
O=C(CCCn1[se]c2ccccc2c1=O)N[C@@H]1O[C@H](CO)[C@@H](O)[C@H](O)[C@H]1O

>  <Standard Type>  (488) 
Inhibition

>  <Standard Relation>  (488) 
'='

>  <Standard Units>  (488) 
%

>  <Standard Value>  (488) 
0.0

>  <Assay ChEMBL ID>  (488) 
CHEMBL1943940

>  <Assay Description>  (488) 
Inhibition of SYK at 1 uM

>  <BAO Format ID>  (488) 
BAO_0000357

>  <BAO Label>  (488) 
single protein format

>  <Assay Organism>  (488) 
None

>  <Target ChEMBL ID>  (488) 
CHEMBL2599

>  <Target Name>  (488) 
Tyrosine-protein kinase SYK

>  <Target Organism>  (488) 
Homo sapiens

>  <Target Type>  (488) 
SINGLE PROTEIN

>  <Document ChEMBL ID>  (488) 
CHEMBL1938284

>  <Source Description>  (488) 
Scientific Literature

>  <Document Journal>  (488) 
Eur J Med Chem

>  <Document Year>  (488) 
2012.0

>  <Active>  (488) 
0.0

>  <bits>  (488) 
<rdkit.DataStructs.cDataStructs.ExplicitBitVect object at 0x00000193F33E92A0>

>  <Group>  (488) 
G2

$$$$

     RDKit          2D

 29 32  0  0  0  0  0  0  0  0999 V2000
   -5.0023   -8.0543    0.0000 N   0  0  0  0  0  0  0  0  0  0  0  0
   -4.6904   -6.5871    0.0000 S   0  0  0  0  0  0  0  0  0  0  0  0
   -6.1577   -6.2752    0.0000 O   0  0  0  0  0  0  0  0  0  0  0  0
   -3.2232   -6.8990    0.0000 O   0  0  0  0  0  0  0  0  0  0  0  0
   -4.3786   -5.1199    0.0000 C   0  0  0  0  0  0  0  0  0  0  0  0
   -5.4933   -4.1162    0.0000 C   0  0  0  0  0  0  0  0  0  0  0  0
   -5.1814   -2.6490    0.0000 C   0  0  0  0  0  0  0  0  0  0  0  0
   -3.7548   -2.1855    0.0000 C   0  0  0  0  0  0  0  0  0  0  0  0
   -2.6401   -3.1891    0.0000 C   0  0  0  0  0  0  0  0  0  0  0  0
   -1.2135   -2.7256    0.0000 C   0  0  0  0  0  0  0  0  0  0  0  0
   -0.0000   -3.6073    0.0000 N   0  0  0  0  0  0  0  0  0  0  0  0
    1.2135   -2.7256    0.0000 N   0  0  0  0  0  0  0  0  0  0  0  0
    0.7500   -1.2990    0.0000 C   0  0  0  0  0  0  0  0  0  0  0  0
    1.5000    0.0000    0.0000 C   0  0  0  0  0  0  0  0  0  0  0  0
    0.7500    1.2990    0.0000 C   0  0  0  0  0  0  0  0  0  0  0  0
   -0.7500    1.2990    0.0000 C   0  0  0  0  0  0  0  0  0  0  0  0
   -1.5000    2.5981    0.0000 N   0  0  0  0  0  0  0  0  0  0  0  0
   -0.7500    3.8971    0.0000 C   0  0  0  0  0  0  0  0  0  0  0  0
    0.7500    3.8971    0.0000 O   0  0  0  0  0  0  0  0  0  0  0  0
   -1.5000    5.1962    0.0000 C   0  0  0  0  0  0  0  0  0  0  0  0
   -0.7500    6.4952    0.0000 C   0  0  0  0  0  0  0  0  0  0  0  0
    0.7500    6.4952    0.0000 C   0  0  0  0  0  0  0  0  0  0  0  0
    1.5000    7.7942    0.0000 C   0  0  0  0  0  0  0  0  0  0  0  0
    0.7500    9.0933    0.0000 C   0  0  0  0  0  0  0  0  0  0  0  0
   -0.7500    9.0933    0.0000 C   0  0  0  0  0  0  0  0  0  0  0  0
   -1.5000    7.7942    0.0000 C   0  0  0  0  0  0  0  0  0  0  0  0
   -1.5000    0.0000    0.0000 C   0  0  0  0  0  0  0  0  0  0  0  0
   -0.7500   -1.2990    0.0000 C   0  0  0  0  0  0  0  0  0  0  0  0
   -2.9520   -4.6564    0.0000 C   0  0  0  0  0  0  0  0  0  0  0  0
  1  2  1  0
  2  3  2  0
  2  4  2  0
  2  5  1  0
  5  6  2  0
  6  7  1  0
  7  8  2  0
  8  9  1  0
  9 10  1  0
 10 11  2  0
 11 12  1  0
 12 13  1  0
 13 14  2  0
 14 15  1  0
 15 16  2  0
 16 17  1  0
 17 18  1  0
 18 19  2  0
 18 20  1  0
 20 21  1  0
 21 22  2  0
 22 23  1  0
 23 24  2  0
 24 25  1  0
 25 26  2  0
 16 27  1  0
 27 28  2  0
  9 29  2  0
 29  5  1  0
 28 10  1  0
 28 13  1  0
 26 21  1  0
M  END
>  <Compound_ID>  (489) 
CHEMBL3330255

>  <Molecule Name>  (489) 
nan

>  <Molecular Weight>  (489) 
406.47

>  <AlogP>  (489) 
3.06

>  <Smiles>  (489) 
NS(=O)(=O)c1cccc(-c2n[nH]c3ccc(NC(=O)Cc4ccccc4)cc23)c1

>  <Standard Type>  (489) 
Inhibition

>  <Standard Relation>  (489) 
'='

>  <Standard Units>  (489) 
%

>  <Standard Value>  (489) 
5.0

>  <Assay ChEMBL ID>  (489) 
CHEMBL3369118

>  <Assay Description>  (489) 
Inhibition of human Syk at 1 uM by radiometric Assay

>  <BAO Format ID>  (489) 
BAO_0000357

>  <BAO Label>  (489) 
single protein format

>  <Assay Organism>  (489) 
Homo sapiens

>  <Target ChEMBL ID>  (489) 
CHEMBL2599

>  <Target Name>  (489) 
Tyrosine-protein kinase SYK

>  <Target Organism>  (489) 
Homo sapiens

>  <Target Type>  (489) 
SINGLE PROTEIN

>  <Document ChEMBL ID>  (489) 
CHEMBL3352261

>  <Source Description>  (489) 
Scientific Literature

>  <Document Journal>  (489) 
Bioorg Med Chem

>  <Document Year>  (489) 
2014.0

>  <Active>  (489) 
0.0

>  <bits>  (489) 
<rdkit.DataStructs.cDataStructs.ExplicitBitVect object at 0x00000193F33EB0D0>

>  <Group>  (489) 
G2

$$$$

     RDKit          2D

 42 46  0  0  0  0  0  0  0  0999 V2000
    9.0985   -9.6461    0.0000 C   0  0  0  0  0  0  0  0  0  0  0  0
    7.7282   -9.0360    0.0000 S   0  0  0  0  0  0  0  0  0  0  0  0
    8.3383   -7.6657    0.0000 O   0  0  0  0  0  0  0  0  0  0  0  0
    7.1181  -10.4063    0.0000 O   0  0  0  0  0  0  0  0  0  0  0  0
    6.3579   -8.4259    0.0000 C   0  0  0  0  0  0  0  0  0  0  0  0
    6.2011   -6.9341    0.0000 C   0  0  0  0  0  0  0  0  0  0  0  0
    4.8308   -6.3240    0.0000 N   0  0  0  0  0  0  0  0  0  0  0  0
    4.6740   -4.8322    0.0000 C   0  0  0  0  0  0  0  0  0  0  0  0
    3.3037   -4.2221    0.0000 C   0  0  0  0  0  0  0  0  0  0  0  0
    2.9918   -2.7549    0.0000 N   0  0  0  0  0  0  0  0  0  0  0  0
    1.5000   -2.5981    0.0000 C   0  0  0  0  0  0  0  0  0  0  0  0
    0.7500   -1.2990    0.0000 C   0  0  0  0  0  0  0  0  0  0  0  0
    1.5000    0.0000    0.0000 C   0  0  0  0  0  0  0  0  0  0  0  0
    0.7500    1.2990    0.0000 C   0  0  0  0  0  0  0  0  0  0  0  0
   -0.7500    1.2990    0.0000 C   0  0  0  0  0  0  0  0  0  0  0  0
   -1.5000    2.5981    0.0000 N   0  0  0  0  0  0  0  0  0  0  0  0
   -3.0000    2.5981    0.0000 C   0  0  0  0  0  0  0  0  0  0  0  0
   -3.7500    1.2990    0.0000 N   0  0  0  0  0  0  0  0  0  0  0  0
   -3.0000    0.0000    0.0000 C   0  0  0  0  0  0  0  0  0  0  0  0
   -3.7500   -1.2990    0.0000 N   0  0  0  0  0  0  0  0  0  0  0  0
   -5.2500   -1.2990    0.0000 C   0  0  0  0  0  0  0  0  0  0  0  0
   -6.0000    0.0000    0.0000 C   0  0  0  0  0  0  0  0  0  0  0  0
   -7.5000    0.0000    0.0000 C   0  0  0  0  0  0  0  0  0  0  0  0
   -8.2500   -1.2990    0.0000 C   0  0  0  0  0  0  0  0  0  0  0  0
   -9.7500   -1.2990    0.0000 O   0  0  0  0  0  0  0  0  0  0  0  0
  -10.5000    0.0000    0.0000 C   0  0  0  0  0  0  0  0  0  0  0  0
  -12.0000    0.0000    0.0000 C   0  0  0  0  0  0  0  0  0  0  0  0
  -12.7500    1.2990    0.0000 C   0  0  0  0  0  0  0  0  0  0  0  0
  -14.2500    1.2990    0.0000 C   0  0  0  0  0  0  0  0  0  0  0  0
  -15.0000    0.0000    0.0000 C   0  0  0  0  0  0  0  0  0  0  0  0
  -14.2500   -1.2990    0.0000 C   0  0  0  0  0  0  0  0  0  0  0  0
  -15.0000   -2.5981    0.0000 C   0  0  0  0  0  0  0  0  0  0  0  0
  -15.7500   -3.8971    0.0000 F   0  0  0  0  0  0  0  0  0  0  0  0
  -16.2990   -1.8481    0.0000 F   0  0  0  0  0  0  0  0  0  0  0  0
  -13.7010   -3.3481    0.0000 F   0  0  0  0  0  0  0  0  0  0  0  0
  -12.7500   -1.2990    0.0000 C   0  0  0  0  0  0  0  0  0  0  0  0
   -7.5000   -2.5981    0.0000 C   0  0  0  0  0  0  0  0  0  0  0  0
   -6.0000   -2.5981    0.0000 C   0  0  0  0  0  0  0  0  0  0  0  0
   -1.5000    0.0000    0.0000 C   0  0  0  0  0  0  0  0  0  0  0  0
   -0.7500   -1.2990    0.0000 C   0  0  0  0  0  0  0  0  0  0  0  0
    0.8899   -3.9684    0.0000 C   0  0  0  0  0  0  0  0  0  0  0  0
    2.0046   -4.9721    0.0000 S   0  0  0  0  0  0  0  0  0  0  0  0
  1  2  1  0
  2  3  2  0
  2  4  2  0
  2  5  1  0
  5  6  1  0
  6  7  1  0
  7  8  1  0
  8  9  1  0
  9 10  2  0
 10 11  1  0
 11 12  1  0
 12 13  2  0
 13 14  1  0
 14 15  2  0
 15 16  1  0
 16 17  2  0
 17 18  1  0
 18 19  2  0
 19 20  1  0
 20 21  1  0
 21 22  2  0
 22 23  1  0
 23 24  2  0
 24 25  1  0
 25 26  1  0
 26 27  1  0
 27 28  2  0
 28 29  1  0
 29 30  2  0
 30 31  1  0
 31 32  1  0
 32 33  1  0
 32 34  1  0
 32 35  1  0
 31 36  2  0
 24 37  1  0
 37 38  2  0
 19 39  1  0
 39 40  2  0
 11 41  2  0
 41 42  1  0
 42  9  1  0
 40 12  1  0
 39 15  1  0
 38 21  1  0
 36 27  1  0
M  END
>  <Compound_ID>  (490) 
CHEMBL1909356

>  <Molecule Name>  (490) 
GW569530A

>  <Molecular Weight>  (490) 
650.15

>  <AlogP>  (490) 
6.23

>  <Smiles>  (490) 
CS(=O)(=O)CCNCc1nc(-c2ccc3ncnc(Nc4ccc(OCc5cccc(C(F)(F)F)c5)cc4)c3c2)cs1

>  <Standard Type>  (490) 
Inhibition

>  <Standard Relation>  (490) 
'='

>  <Standard Units>  (490) 
%

>  <Standard Value>  (490) 
2.72

>  <Assay ChEMBL ID>  (490) 
CHEMBL1962175

>  <Assay Description>  (490) 
GSK_PKIS: SYK mean inhibition at 1 uM [Nanosyn]

>  <BAO Format ID>  (490) 
BAO_0000357

>  <BAO Label>  (490) 
single protein format

>  <Assay Organism>  (490) 
None

>  <Target ChEMBL ID>  (490) 
CHEMBL2599

>  <Target Name>  (490) 
Tyrosine-protein kinase SYK

>  <Target Organism>  (490) 
Homo sapiens

>  <Target Type>  (490) 
SINGLE PROTEIN

>  <Document ChEMBL ID>  (490) 
CHEMBL1961873

>  <Source Description>  (490) 
GSK Published Kinase Inhibitor Set

>  <Document Journal>  (490) 
nan

>  <Document Year>  (490) 
nan

>  <Active>  (490) 
0.0

>  <bits>  (490) 
<rdkit.DataStructs.cDataStructs.ExplicitBitVect object at 0x00000193F33E8EB0>

>  <Group>  (490) 
G2

$$$$

     RDKit          2D

 21 24  0  0  0  0  0  0  0  0999 V2000
   -1.8373   -5.6601    0.0000 O   0  0  0  0  0  0  0  0  0  0  0  0
   -2.9520   -4.6564    0.0000 C   0  0  0  0  0  0  0  0  0  0  0  0
   -2.6401   -3.1891    0.0000 N   0  0  0  0  0  0  0  0  0  0  0  0
   -1.2135   -2.7256    0.0000 C   0  0  0  0  0  0  0  0  0  0  0  0
   -0.0000   -3.6073    0.0000 N   0  0  0  0  0  0  0  0  0  0  0  0
    1.2135   -2.7256    0.0000 N   0  0  0  0  0  0  0  0  0  0  0  0
    0.7500   -1.2990    0.0000 C   0  0  0  0  0  0  0  0  0  0  0  0
    1.5000    0.0000    0.0000 C   0  0  0  0  0  0  0  0  0  0  0  0
    0.7500    1.2990    0.0000 C   0  0  0  0  0  0  0  0  0  0  0  0
    1.5000    2.5981    0.0000 C   0  0  0  0  0  0  0  0  0  0  0  0
    3.0000    2.5981    0.0000 C   0  0  0  0  0  0  0  0  0  0  0  0
    3.7500    3.8971    0.0000 C   0  0  0  0  0  0  0  0  0  0  0  0
    3.0000    5.1962    0.0000 C   0  0  0  0  0  0  0  0  0  0  0  0
    1.5000    5.1962    0.0000 C   0  0  0  0  0  0  0  0  0  0  0  0
    0.7500    3.8971    0.0000 C   0  0  0  0  0  0  0  0  0  0  0  0
   -0.7500    1.2990    0.0000 C   0  0  0  0  0  0  0  0  0  0  0  0
   -1.5000    0.0000    0.0000 C   0  0  0  0  0  0  0  0  0  0  0  0
   -0.7500   -1.2990    0.0000 C   0  0  0  0  0  0  0  0  0  0  0  0
   -4.3786   -5.1199    0.0000 C   0  0  0  0  0  0  0  0  0  0  0  0
   -5.3823   -6.2346    0.0000 C   0  0  0  0  0  0  0  0  0  0  0  0
   -5.8458   -4.8080    0.0000 C   0  0  0  0  0  0  0  0  0  0  0  0
  1  2  2  0
  2  3  1  0
  3  4  1  0
  4  5  2  0
  5  6  1  0
  6  7  1  0
  7  8  2  0
  8  9  1  0
  9 10  1  0
 10 11  2  0
 11 12  1  0
 12 13  2  0
 13 14  1  0
 14 15  2  0
  9 16  2  0
 16 17  1  0
 17 18  2  0
  2 19  1  0
 19 20  1  0
 20 21  1  0
 18  4  1  0
 21 19  1  0
 18  7  1  0
 15 10  1  0
M  END
>  <Compound_ID>  (491) 
CHEMBL405021

>  <Molecule Name>  (491) 
nan

>  <Molecular Weight>  (491) 
277.33

>  <AlogP>  (491) 
3.58

>  <Smiles>  (491) 
O=C(Nc1n[nH]c2cc(-c3ccccc3)ccc12)C1CC1

>  <Standard Type>  (491) 
Inhibition

>  <Standard Relation>  (491) 
'='

>  <Standard Units>  (491) 
%

>  <Standard Value>  (491) 
-3.33

>  <Assay ChEMBL ID>  (491) 
CHEMBL1962174

>  <Assay Description>  (491) 
GSK_PKIS: SYK mean inhibition at 0.1 uM [Nanosyn]

>  <BAO Format ID>  (491) 
BAO_0000357

>  <BAO Label>  (491) 
single protein format

>  <Assay Organism>  (491) 
None

>  <Target ChEMBL ID>  (491) 
CHEMBL2599

>  <Target Name>  (491) 
Tyrosine-protein kinase SYK

>  <Target Organism>  (491) 
Homo sapiens

>  <Target Type>  (491) 
SINGLE PROTEIN

>  <Document ChEMBL ID>  (491) 
CHEMBL1961873

>  <Source Description>  (491) 
GSK Published Kinase Inhibitor Set

>  <Document Journal>  (491) 
nan

>  <Document Year>  (491) 
nan

>  <Active>  (491) 
0.0

>  <bits>  (491) 
<rdkit.DataStructs.cDataStructs.ExplicitBitVect object at 0x00000193F33E8900>

>  <Group>  (491) 
G2

$$$$

     RDKit          2D

 40 45  0  0  0  0  0  0  0  0999 V2000
   -7.9106   -1.1931    0.0000 C   0  0  0  0  0  0  0  0  0  0  0  0
   -6.4188   -1.3499    0.0000 C   0  0  0  0  0  0  0  0  0  0  0  0
   -5.5371   -0.1364    0.0000 N   0  0  0  0  0  0  0  0  0  0  0  0
   -4.0371   -0.1364    0.0000 C   0  0  0  0  0  0  0  0  0  0  0  0
   -3.5736    1.2902    0.0000 C   0  0  0  0  0  0  0  0  0  0  0  0
   -2.1470    1.7537    0.0000 C   0  0  0  0  0  0  0  0  0  0  0  0
   -1.8351    3.2209    0.0000 C   0  0  0  0  0  0  0  0  0  0  0  0
   -0.4086    3.6844    0.0000 C   0  0  0  0  0  0  0  0  0  0  0  0
    0.7062    2.6807    0.0000 N   0  0  0  0  0  0  0  0  0  0  0  0
    0.3943    1.2135    0.0000 C   0  0  0  0  0  0  0  0  0  0  0  0
    1.2760    0.0000    0.0000 N   0  0  0  0  0  0  0  0  0  0  0  0
    0.3943   -1.2135    0.0000 C   0  0  0  0  0  0  0  0  0  0  0  0
   -1.0323   -0.7500    0.0000 C   0  0  0  0  0  0  0  0  0  0  0  0
   -1.0323    0.7500    0.0000 C   0  0  0  0  0  0  0  0  0  0  0  0
   -4.7871    2.1718    0.0000 C   0  0  0  0  0  0  0  0  0  0  0  0
   -4.7871    3.6718    0.0000 C   0  0  0  0  0  0  0  0  0  0  0  0
   -3.4881    4.4218    0.0000 C   0  0  0  0  0  0  0  0  0  0  0  0
   -3.4881    5.9218    0.0000 C   0  0  0  0  0  0  0  0  0  0  0  0
   -4.7871    6.6718    0.0000 C   0  0  0  0  0  0  0  0  0  0  0  0
   -6.0862    5.9218    0.0000 C   0  0  0  0  0  0  0  0  0  0  0  0
   -7.3852    6.6718    0.0000 N   0  0  0  0  0  0  0  0  0  0  0  0
   -7.3852    8.1718    0.0000 C   0  0  0  0  0  0  0  0  0  0  0  0
   -6.0862    8.9218    0.0000 O   0  0  0  0  0  0  0  0  0  0  0  0
   -8.6842    8.9218    0.0000 N   0  0  0  0  0  0  0  0  0  0  0  0
   -8.6842   10.4218    0.0000 C   0  0  0  0  0  0  0  0  0  0  0  0
   -7.3852   11.1718    0.0000 C   0  0  0  0  0  0  0  0  0  0  0  0
   -7.3852   12.6718    0.0000 C   0  0  0  0  0  0  0  0  0  0  0  0
   -8.6842   13.4218    0.0000 C   0  0  0  0  0  0  0  0  0  0  0  0
   -8.6842   14.9218    0.0000 O   0  0  0  0  0  0  0  0  0  0  0  0
   -7.3852   15.6718    0.0000 C   0  0  0  0  0  0  0  0  0  0  0  0
   -7.3852   17.1718    0.0000 C   0  0  0  0  0  0  0  0  0  0  0  0
   -6.0862   17.9218    0.0000 C   0  0  0  0  0  0  0  0  0  0  0  0
   -6.0862   19.4218    0.0000 C   0  0  0  0  0  0  0  0  0  0  0  0
   -7.3852   20.1718    0.0000 C   0  0  0  0  0  0  0  0  0  0  0  0
   -8.6842   19.4218    0.0000 C   0  0  0  0  0  0  0  0  0  0  0  0
   -8.6842   17.9218    0.0000 C   0  0  0  0  0  0  0  0  0  0  0  0
   -9.9833   12.6718    0.0000 C   0  0  0  0  0  0  0  0  0  0  0  0
   -9.9833   11.1718    0.0000 C   0  0  0  0  0  0  0  0  0  0  0  0
   -6.0862    4.4218    0.0000 C   0  0  0  0  0  0  0  0  0  0  0  0
   -6.0006    1.2902    0.0000 N   0  0  0  0  0  0  0  0  0  0  0  0
  1  2  1  0
  2  3  1  0
  3  4  1  0
  4  5  2  0
  5  6  1  0
  6  7  2  0
  7  8  1  0
  8  9  2  0
  9 10  1  0
 10 11  1  0
 11 12  1  0
 12 13  2  0
 13 14  1  0
  5 15  1  0
 15 16  1  0
 16 17  2  0
 17 18  1  0
 18 19  2  0
 19 20  1  0
 20 21  1  0
 21 22  1  0
 22 23  2  0
 22 24  1  0
 24 25  1  0
 25 26  2  0
 26 27  1  0
 27 28  2  0
 28 29  1  0
 29 30  1  0
 30 31  1  0
 31 32  2  0
 32 33  1  0
 33 34  2  0
 34 35  1  0
 35 36  2  0
 28 37  1  0
 37 38  2  0
 20 39  2  0
 15 40  2  0
 40  3  1  0
 14  6  1  0
 39 16  1  0
 14 10  2  0
 38 25  1  0
 36 31  1  0
M  END
>  <Compound_ID>  (492) 
CHEMBL505187

>  <Molecule Name>  (492) 
GSK-718429A

>  <Molecular Weight>  (492) 
528.62

>  <AlogP>  (492) 
7.34

>  <Smiles>  (492) 
CCn1cc(-c2ccnc3[nH]ccc23)c(-c2cccc(NC(=O)Nc3ccc(OCc4ccccc4)cc3)c2)n1

>  <Standard Type>  (492) 
Inhibition

>  <Standard Relation>  (492) 
'='

>  <Standard Units>  (492) 
%

>  <Standard Value>  (492) 
-1.9

>  <Assay ChEMBL ID>  (492) 
CHEMBL1962174

>  <Assay Description>  (492) 
GSK_PKIS: SYK mean inhibition at 0.1 uM [Nanosyn]

>  <BAO Format ID>  (492) 
BAO_0000357

>  <BAO Label>  (492) 
single protein format

>  <Assay Organism>  (492) 
None

>  <Target ChEMBL ID>  (492) 
CHEMBL2599

>  <Target Name>  (492) 
Tyrosine-protein kinase SYK

>  <Target Organism>  (492) 
Homo sapiens

>  <Target Type>  (492) 
SINGLE PROTEIN

>  <Document ChEMBL ID>  (492) 
CHEMBL1961873

>  <Source Description>  (492) 
GSK Published Kinase Inhibitor Set

>  <Document Journal>  (492) 
nan

>  <Document Year>  (492) 
nan

>  <Active>  (492) 
0.0

>  <bits>  (492) 
<rdkit.DataStructs.cDataStructs.ExplicitBitVect object at 0x00000193F33E9FC0>

>  <Group>  (492) 
G2

$$$$

     RDKit          2D

 24 26  0  0  0  0  0  0  0  0999 V2000
    3.7500   -1.2990    0.0000 N   0  0  0  0  0  0  0  0  0  0  0  0
    3.0000    0.0000    0.0000 C   0  0  0  0  0  0  0  0  0  0  0  0
    3.7500    1.2990    0.0000 O   0  0  0  0  0  0  0  0  0  0  0  0
    1.5000    0.0000    0.0000 C   0  0  0  0  0  0  0  0  0  0  0  0
    0.7500   -1.2990    0.0000 C   0  0  0  0  0  0  0  0  0  0  0  0
   -0.7500   -1.2990    0.0000 C   0  0  0  0  0  0  0  0  0  0  0  0
   -1.5000    0.0000    0.0000 C   0  0  0  0  0  0  0  0  0  0  0  0
   -0.7500    1.2990    0.0000 C   0  0  0  0  0  0  0  0  0  0  0  0
   -1.5000    2.5981    0.0000 N   0  0  0  0  0  0  0  0  0  0  0  0
   -0.7500    3.8971    0.0000 C   0  0  0  0  0  0  0  0  0  0  0  0
    0.7500    3.8971    0.0000 N   0  0  0  0  0  0  0  0  0  0  0  0
    1.5000    5.1962    0.0000 C   0  0  0  0  0  0  0  0  0  0  0  0
    0.7500    6.4952    0.0000 C   0  0  0  0  0  0  0  0  0  0  0  0
   -0.7500    6.4952    0.0000 C   0  0  0  0  0  0  0  0  0  0  0  0
   -1.5000    7.7942    0.0000 N   0  0  0  0  0  0  0  0  0  0  0  0
   -0.7500    9.0933    0.0000 C   0  0  0  0  0  0  0  0  0  0  0  0
    0.7500    9.0933    0.0000 C   0  0  0  0  0  0  0  0  0  0  0  0
    1.5000   10.3923    0.0000 C   0  0  0  0  0  0  0  0  0  0  0  0
    0.7500   11.6913    0.0000 C   0  0  0  0  0  0  0  0  0  0  0  0
   -0.7500   11.6913    0.0000 C   0  0  0  0  0  0  0  0  0  0  0  0
   -1.5000   12.9904    0.0000 F   0  0  0  0  0  0  0  0  0  0  0  0
   -1.5000   10.3923    0.0000 C   0  0  0  0  0  0  0  0  0  0  0  0
   -1.5000    5.1962    0.0000 N   0  0  0  0  0  0  0  0  0  0  0  0
    0.7500    1.2990    0.0000 C   0  0  0  0  0  0  0  0  0  0  0  0
  1  2  1  0
  2  3  2  0
  2  4  1  0
  4  5  2  0
  5  6  1  0
  6  7  2  0
  7  8  1  0
  8  9  1  0
  9 10  1  0
 10 11  2  0
 11 12  1  0
 12 13  2  0
 13 14  1  0
 14 15  1  0
 15 16  1  0
 16 17  2  0
 17 18  1  0
 18 19  2  0
 19 20  1  0
 20 21  1  0
 20 22  2  0
 14 23  2  0
  8 24  2  0
 24  4  1  0
 23 10  1  0
 22 16  1  0
M  END
>  <Compound_ID>  (493) 
CHEMBL1909382

>  <Molecule Name>  (493) 
GW759710A

>  <Molecular Weight>  (493) 
359.79

>  <AlogP>  (493) 
3.20

>  <Smiles>  (493) 
NC(=O)c1cccc(Nc2nccc(Nc3cccc(F)c3)n2)c1

>  <Standard Type>  (493) 
Inhibition

>  <Standard Relation>  (493) 
'='

>  <Standard Units>  (493) 
%

>  <Standard Value>  (493) 
0.43

>  <Assay ChEMBL ID>  (493) 
CHEMBL1962174

>  <Assay Description>  (493) 
GSK_PKIS: SYK mean inhibition at 0.1 uM [Nanosyn]

>  <BAO Format ID>  (493) 
BAO_0000357

>  <BAO Label>  (493) 
single protein format

>  <Assay Organism>  (493) 
None

>  <Target ChEMBL ID>  (493) 
CHEMBL2599

>  <Target Name>  (493) 
Tyrosine-protein kinase SYK

>  <Target Organism>  (493) 
Homo sapiens

>  <Target Type>  (493) 
SINGLE PROTEIN

>  <Document ChEMBL ID>  (493) 
CHEMBL1961873

>  <Source Description>  (493) 
GSK Published Kinase Inhibitor Set

>  <Document Journal>  (493) 
nan

>  <Document Year>  (493) 
nan

>  <Active>  (493) 
0.0

>  <bits>  (493) 
<rdkit.DataStructs.cDataStructs.ExplicitBitVect object at 0x00000193F33EAD50>

>  <Group>  (493) 
G2

$$$$

     RDKit          2D

 28 32  0  0  0  0  0  0  0  0999 V2000
    4.5000    0.0000    0.0000 N   0  0  0  0  0  0  0  0  0  0  0  0
    3.0000    0.0000    0.0000 C   0  0  0  0  0  0  0  0  0  0  0  0
    1.5000    0.0000    0.0000 C   0  0  0  0  0  0  0  0  0  0  0  0
    0.7500   -1.2990    0.0000 C   0  0  0  0  0  0  0  0  0  0  0  0
   -0.7500   -1.2990    0.0000 C   0  0  0  0  0  0  0  0  0  0  0  0
   -1.5000    0.0000    0.0000 C   0  0  0  0  0  0  0  0  0  0  0  0
   -2.9672    0.3119    0.0000 C   0  0  0  0  0  0  0  0  0  0  0  0
   -4.0819   -0.6918    0.0000 C   0  0  0  0  0  0  0  0  0  0  0  0
   -5.5085   -0.2283    0.0000 C   0  0  0  0  0  0  0  0  0  0  0  0
   -6.6232   -1.2320    0.0000 C   0  0  0  0  0  0  0  0  0  0  0  0
   -6.3114   -2.6992    0.0000 N   0  0  0  0  0  0  0  0  0  0  0  0
   -4.8848   -3.1627    0.0000 C   0  0  0  0  0  0  0  0  0  0  0  0
   -4.5729   -4.6300    0.0000 N   0  0  0  0  0  0  0  0  0  0  0  0
   -5.6876   -5.6337    0.0000 C   0  0  0  0  0  0  0  0  0  0  0  0
   -6.1512   -7.0602    0.0000 C   0  0  0  0  0  0  0  0  0  0  0  0
   -7.1549   -5.9455    0.0000 C   0  0  0  0  0  0  0  0  0  0  0  0
   -3.7701   -2.1590    0.0000 N   0  0  0  0  0  0  0  0  0  0  0  0
   -3.1240    1.8037    0.0000 C   0  0  0  0  0  0  0  0  0  0  0  0
   -4.4231    2.5537    0.0000 C   0  0  0  0  0  0  0  0  0  0  0  0
   -4.4231    4.0537    0.0000 C   0  0  0  0  0  0  0  0  0  0  0  0
   -5.7221    4.8037    0.0000 C   0  0  0  0  0  0  0  0  0  0  0  0
   -7.0211    4.0537    0.0000 C   0  0  0  0  0  0  0  0  0  0  0  0
   -8.3202    4.8037    0.0000 F   0  0  0  0  0  0  0  0  0  0  0  0
   -7.0211    2.5537    0.0000 C   0  0  0  0  0  0  0  0  0  0  0  0
   -5.7221    1.8037    0.0000 C   0  0  0  0  0  0  0  0  0  0  0  0
   -1.7537    2.4138    0.0000 N   0  0  0  0  0  0  0  0  0  0  0  0
   -0.7500    1.2990    0.0000 N   0  0  0  0  0  0  0  0  0  0  0  0
    0.7500    1.2990    0.0000 C   0  0  0  0  0  0  0  0  0  0  0  0
  1  2  3  0
  2  3  1  0
  3  4  1  0
  4  5  2  0
  5  6  1  0
  6  7  2  0
  7  8  1  0
  8  9  2  0
  9 10  1  0
 10 11  2  0
 11 12  1  0
 12 13  1  0
 13 14  1  0
 14 15  1  0
 15 16  1  0
 12 17  2  0
  7 18  1  0
 18 19  1  0
 19 20  2  0
 20 21  1  0
 21 22  2  0
 22 23  1  0
 22 24  1  0
 24 25  2  0
 18 26  2  0
 26 27  1  0
 27 28  1  0
 28  3  2  0
 27  6  1  0
 17  8  1  0
 25 19  1  0
 16 14  1  0
M  END
>  <Compound_ID>  (494) 
CHEMBL1885746

>  <Molecule Name>  (494) 
GW561436X

>  <Molecular Weight>  (494) 
370.39

>  <AlogP>  (494) 
4.04

>  <Smiles>  (494) 
N#Cc1ccc2c(-c3ccnc(NC4CC4)n3)c(-c3ccc(F)cc3)nn2c1

>  <Standard Type>  (494) 
Inhibition

>  <Standard Relation>  (494) 
'='

>  <Standard Units>  (494) 
%

>  <Standard Value>  (494) 
-1.91

>  <Assay ChEMBL ID>  (494) 
CHEMBL1962175

>  <Assay Description>  (494) 
GSK_PKIS: SYK mean inhibition at 1 uM [Nanosyn]

>  <BAO Format ID>  (494) 
BAO_0000357

>  <BAO Label>  (494) 
single protein format

>  <Assay Organism>  (494) 
None

>  <Target ChEMBL ID>  (494) 
CHEMBL2599

>  <Target Name>  (494) 
Tyrosine-protein kinase SYK

>  <Target Organism>  (494) 
Homo sapiens

>  <Target Type>  (494) 
SINGLE PROTEIN

>  <Document ChEMBL ID>  (494) 
CHEMBL1961873

>  <Source Description>  (494) 
GSK Published Kinase Inhibitor Set

>  <Document Journal>  (494) 
nan

>  <Document Year>  (494) 
nan

>  <Active>  (494) 
0.0

>  <bits>  (494) 
<rdkit.DataStructs.cDataStructs.ExplicitBitVect object at 0x00000193F33EB300>

>  <Group>  (494) 
G2

$$$$

     RDKit          2D

 34 38  0  0  0  0  0  0  0  0999 V2000
   -1.6768  -15.1430    0.0000 C   0  0  0  0  0  0  0  0  0  0  0  0
   -1.5200  -13.6512    0.0000 N   0  0  0  0  0  0  0  0  0  0  0  0
   -2.7335  -12.7695    0.0000 C   0  0  0  0  0  0  0  0  0  0  0  0
   -0.1497  -13.0411    0.0000 C   0  0  0  0  0  0  0  0  0  0  0  0
    0.0071  -11.5493    0.0000 C   0  0  0  0  0  0  0  0  0  0  0  0
    1.3774  -10.9392    0.0000 O   0  0  0  0  0  0  0  0  0  0  0  0
    1.5342   -9.4474    0.0000 C   0  0  0  0  0  0  0  0  0  0  0  0
    0.3207   -8.5658    0.0000 C   0  0  0  0  0  0  0  0  0  0  0  0
    0.4775   -7.0740    0.0000 C   0  0  0  0  0  0  0  0  0  0  0  0
    1.8478   -6.4639    0.0000 C   0  0  0  0  0  0  0  0  0  0  0  0
    2.0046   -4.9721    0.0000 C   0  0  0  0  0  0  0  0  0  0  0  0
    0.8899   -3.9684    0.0000 C   0  0  0  0  0  0  0  0  0  0  0  0
    1.5000   -2.5981    0.0000 C   0  0  0  0  0  0  0  0  0  0  0  0
    0.7500   -1.2990    0.0000 C   0  0  0  0  0  0  0  0  0  0  0  0
    1.5000    0.0000    0.0000 C   0  0  0  0  0  0  0  0  0  0  0  0
    0.7500    1.2990    0.0000 C   0  0  0  0  0  0  0  0  0  0  0  0
   -0.7500    1.2990    0.0000 C   0  0  0  0  0  0  0  0  0  0  0  0
   -1.5000    0.0000    0.0000 C   0  0  0  0  0  0  0  0  0  0  0  0
   -0.7500   -1.2990    0.0000 C   0  0  0  0  0  0  0  0  0  0  0  0
   -2.9672    0.3119    0.0000 C   0  0  0  0  0  0  0  0  0  0  0  0
   -3.1240    1.8037    0.0000 C   0  0  0  0  0  0  0  0  0  0  0  0
   -1.7537    2.4138    0.0000 C   0  0  0  0  0  0  0  0  0  0  0  0
   -1.4418    3.8810    0.0000 N   0  0  0  0  0  0  0  0  0  0  0  0
   -2.5565    4.8847    0.0000 O   0  0  0  0  0  0  0  0  0  0  0  0
    2.9918   -2.7549    0.0000 C   0  0  0  0  0  0  0  0  0  0  0  0
    3.9955   -1.6402    0.0000 C   0  0  0  0  0  0  0  0  0  0  0  0
    5.4627   -1.9520    0.0000 C   0  0  0  0  0  0  0  0  0  0  0  0
    6.4664   -0.8373    0.0000 C   0  0  0  0  0  0  0  0  0  0  0  0
    6.0029    0.5893    0.0000 N   0  0  0  0  0  0  0  0  0  0  0  0
    4.5356    0.9012    0.0000 C   0  0  0  0  0  0  0  0  0  0  0  0
    3.5320   -0.2136    0.0000 C   0  0  0  0  0  0  0  0  0  0  0  0
    3.3037   -4.2221    0.0000 O   0  0  0  0  0  0  0  0  0  0  0  0
    3.0613   -7.3456    0.0000 C   0  0  0  0  0  0  0  0  0  0  0  0
    2.9046   -8.8373    0.0000 C   0  0  0  0  0  0  0  0  0  0  0  0
  1  2  1  0
  2  3  1  0
  2  4  1  0
  4  5  1  0
  5  6  1  0
  6  7  1  0
  7  8  2  0
  8  9  1  0
  9 10  2  0
 10 11  1  0
 11 12  2  0
 12 13  1  0
 13 14  1  0
 14 15  2  0
 15 16  1  0
 16 17  2  0
 17 18  1  0
 18 19  2  0
 18 20  1  0
 20 21  1  0
 21 22  1  0
 22 23  2  3
 23 24  1  0
 13 25  2  0
 25 26  1  0
 26 27  2  0
 27 28  1  0
 28 29  2  0
 29 30  1  0
 30 31  2  0
 25 32  1  0
 10 33  1  0
 33 34  2  0
 34  7  1  0
 32 11  1  0
 19 14  1  0
 31 26  1  0
 22 17  1  0
M  END
>  <Compound_ID>  (495) 
CHEMBL1794072

>  <Molecule Name>  (495) 
nan

>  <Molecular Weight>  (495) 
490.0

>  <AlogP>  (495) 
5.74

>  <Smiles>  (495) 
CN(C)CCOc1ccc(-c2cc(-c3ccc4c(c3)CCC4=NO)c(-c3ccncc3)o2)cc1

>  <Standard Type>  (495) 
Inhibition

>  <Standard Relation>  (495) 
'='

>  <Standard Units>  (495) 
%

>  <Standard Value>  (495) 
0.85

>  <Assay ChEMBL ID>  (495) 
CHEMBL1962174

>  <Assay Description>  (495) 
GSK_PKIS: SYK mean inhibition at 0.1 uM [Nanosyn]

>  <BAO Format ID>  (495) 
BAO_0000357

>  <BAO Label>  (495) 
single protein format

>  <Assay Organism>  (495) 
None

>  <Target ChEMBL ID>  (495) 
CHEMBL2599

>  <Target Name>  (495) 
Tyrosine-protein kinase SYK

>  <Target Organism>  (495) 
Homo sapiens

>  <Target Type>  (495) 
SINGLE PROTEIN

>  <Document ChEMBL ID>  (495) 
CHEMBL1961873

>  <Source Description>  (495) 
GSK Published Kinase Inhibitor Set

>  <Document Journal>  (495) 
nan

>  <Document Year>  (495) 
nan

>  <Active>  (495) 
0.0

>  <bits>  (495) 
<rdkit.DataStructs.cDataStructs.ExplicitBitVect object at 0x00000193F33E82E0>

>  <Group>  (495) 
G2

$$$$

     RDKit          2D

 33 37  0  0  0  0  0  0  0  0999 V2000
   -0.0967    5.1517    0.0000 C   0  0  0  0  0  0  0  0  0  0  0  0
   -0.4086    3.6844    0.0000 C   0  0  0  0  0  0  0  0  0  0  0  0
    0.7062    2.6807    0.0000 O   0  0  0  0  0  0  0  0  0  0  0  0
    0.3943    1.2135    0.0000 C   0  0  0  0  0  0  0  0  0  0  0  0
    1.2760    0.0000    0.0000 C   0  0  0  0  0  0  0  0  0  0  0  0
    0.3943   -1.2135    0.0000 C   0  0  0  0  0  0  0  0  0  0  0  0
    0.8578   -2.6401    0.0000 O   0  0  0  0  0  0  0  0  0  0  0  0
   -1.0323   -0.7500    0.0000 O   0  0  0  0  0  0  0  0  0  0  0  0
   -1.0323    0.7500    0.0000 C   0  0  0  0  0  0  0  0  0  0  0  0
   -2.1470    1.7537    0.0000 C   0  0  0  0  0  0  0  0  0  0  0  0
   -1.8351    3.2209    0.0000 C   0  0  0  0  0  0  0  0  0  0  0  0
   -2.9499    4.2246    0.0000 C   0  0  0  0  0  0  0  0  0  0  0  0
   -2.6380    5.6918    0.0000 O   0  0  0  0  0  0  0  0  0  0  0  0
   -4.3764    3.7611    0.0000 C   0  0  0  0  0  0  0  0  0  0  0  0
   -4.6883    2.2939    0.0000 C   0  0  0  0  0  0  0  0  0  0  0  0
   -6.1149    1.8303    0.0000 C   0  0  0  0  0  0  0  0  0  0  0  0
   -7.2296    2.8340    0.0000 C   0  0  0  0  0  0  0  0  0  0  0  0
   -6.9177    4.3013    0.0000 C   0  0  0  0  0  0  0  0  0  0  0  0
   -8.0325    5.3050    0.0000 C   0  0  0  0  0  0  0  0  0  0  0  0
   -7.7206    6.7722    0.0000 C   0  0  0  0  0  0  0  0  0  0  0  0
   -8.8353    7.7759    0.0000 C   0  0  0  0  0  0  0  0  0  0  0  0
   -8.5234    9.2431    0.0000 N   0  0  0  0  0  0  0  0  0  0  0  0
   -7.0969    9.7066    0.0000 C   0  0  0  0  0  0  0  0  0  0  0  0
   -9.6382   10.2468    0.0000 C   0  0  0  0  0  0  0  0  0  0  0  0
  -10.2619    7.3123    0.0000 C   0  0  0  0  0  0  0  0  0  0  0  0
  -11.3766    8.3160    0.0000 O   0  0  0  0  0  0  0  0  0  0  0  0
  -10.5738    5.8451    0.0000 C   0  0  0  0  0  0  0  0  0  0  0  0
  -12.0003    5.3816    0.0000 C   0  0  0  0  0  0  0  0  0  0  0  0
   -9.4590    4.8414    0.0000 O   0  0  0  0  0  0  0  0  0  0  0  0
   -5.4912    4.7648    0.0000 C   0  0  0  0  0  0  0  0  0  0  0  0
   -5.1793    6.2320    0.0000 O   0  0  0  0  0  0  0  0  0  0  0  0
   -3.5736    1.2902    0.0000 C   0  0  0  0  0  0  0  0  0  0  0  0
   -3.8855   -0.1771    0.0000 O   0  0  0  0  0  0  0  0  0  0  0  0
  2  1  1  1
  2  3  1  0
  3  4  1  0
  4  5  1  6
  5  6  1  0
  6  7  2  0
  6  8  1  0
  9  8  1  6
  9 10  1  0
 10 11  2  0
 11 12  1  0
 12 13  2  0
 12 14  1  0
 14 15  2  0
 15 16  1  0
 16 17  2  0
 17 18  1  0
 19 18  1  6
 19 20  1  0
 20 21  1  0
 21 22  1  6
 22 23  1  0
 22 24  1  0
 21 25  1  0
 25 26  1  1
 25 27  1  0
 27 28  1  6
 27 29  1  0
 18 30  2  0
 30 31  1  0
 15 32  1  0
 32 33  2  0
 11  2  1  0
 30 14  1  0
  9  4  1  0
 32 10  1  0
 29 19  1  0
M  END
>  <Compound_ID>  (496) 
CHEMBL2216825

>  <Molecule Name>  (496) 
LACTOQUINOMYCIN

>  <Molecular Weight>  (496) 
457.48

>  <AlogP>  (496) 
1.31

>  <Smiles>  (496) 
C[C@H]1O[C@@H]2CC(=O)O[C@@H]2C2=C1C(=O)c1c(ccc([C@H]3C[C@@H](N(C)C)[C@H](O)[C@@H](C)O3)c1O)C2=O

>  <Standard Type>  (496) 
Inhibition

>  <Standard Relation>  (496) 
'='

>  <Standard Units>  (496) 
%

>  <Standard Value>  (496) 
2.0

>  <Assay ChEMBL ID>  (496) 
CHEMBL1019643

>  <Assay Description>  (496) 
Inhibition of SYK at 1 uM

>  <BAO Format ID>  (496) 
BAO_0000357

>  <BAO Label>  (496) 
single protein format

>  <Assay Organism>  (496) 
None

>  <Target ChEMBL ID>  (496) 
CHEMBL2599

>  <Target Name>  (496) 
Tyrosine-protein kinase SYK

>  <Target Organism>  (496) 
Homo sapiens

>  <Target Type>  (496) 
SINGLE PROTEIN

>  <Document ChEMBL ID>  (496) 
CHEMBL1153413

>  <Source Description>  (496) 
Scientific Literature

>  <Document Journal>  (496) 
J Med Chem

>  <Document Year>  (496) 
2009.0

>  <Active>  (496) 
0.0

>  <bits>  (496) 
<rdkit.DataStructs.cDataStructs.ExplicitBitVect object at 0x00000193F33E89E0>

>  <Group>  (496) 
G2

$$$$

     RDKit          2D

 24 27  0  0  0  0  0  0  0  0999 V2000
  -10.4431    3.8367    0.0000 Cl  0  0  0  0  0  0  0  0  0  0  0  0
   -9.3284    2.8330    0.0000 C   0  0  0  0  0  0  0  0  0  0  0  0
   -7.9018    3.2966    0.0000 C   0  0  0  0  0  0  0  0  0  0  0  0
   -6.7871    2.2929    0.0000 C   0  0  0  0  0  0  0  0  0  0  0  0
   -7.0990    0.8256    0.0000 C   0  0  0  0  0  0  0  0  0  0  0  0
   -5.9843   -0.1781    0.0000 C   0  0  0  0  0  0  0  0  0  0  0  0
   -6.2961   -1.6453    0.0000 N   0  0  0  0  0  0  0  0  0  0  0  0
   -5.1814   -2.6490    0.0000 C   0  0  0  0  0  0  0  0  0  0  0  0
   -5.4933   -4.1162    0.0000 N   0  0  0  0  0  0  0  0  0  0  0  0
   -4.3786   -5.1199    0.0000 C   0  0  0  0  0  0  0  0  0  0  0  0
   -2.9520   -4.6564    0.0000 C   0  0  0  0  0  0  0  0  0  0  0  0
   -2.6401   -3.1891    0.0000 C   0  0  0  0  0  0  0  0  0  0  0  0
   -1.2135   -2.7256    0.0000 C   0  0  0  0  0  0  0  0  0  0  0  0
   -0.0000   -3.6073    0.0000 C   0  0  0  0  0  0  0  0  0  0  0  0
    1.2135   -2.7256    0.0000 N   0  0  0  0  0  0  0  0  0  0  0  0
    0.7500   -1.2990    0.0000 N   0  0  0  0  0  0  0  0  0  0  0  0
    1.5000    0.0000    0.0000 N   0  0  0  0  0  0  0  0  0  0  0  0
    0.7500    1.2990    0.0000 C   0  0  0  0  0  0  0  0  0  0  0  0
   -0.7500    1.2990    0.0000 C   0  0  0  0  0  0  0  0  0  0  0  0
   -1.5000    0.0000    0.0000 C   0  0  0  0  0  0  0  0  0  0  0  0
   -0.7500   -1.2990    0.0000 C   0  0  0  0  0  0  0  0  0  0  0  0
   -3.7548   -2.1855    0.0000 N   0  0  0  0  0  0  0  0  0  0  0  0
   -8.5256    0.3621    0.0000 C   0  0  0  0  0  0  0  0  0  0  0  0
   -9.6403    1.3658    0.0000 C   0  0  0  0  0  0  0  0  0  0  0  0
  1  2  1  0
  2  3  2  0
  3  4  1  0
  4  5  2  0
  5  6  1  0
  6  7  1  0
  7  8  1  0
  8  9  2  0
  9 10  1  0
 10 11  2  0
 11 12  1  0
 12 13  1  0
 13 14  1  0
 14 15  2  0
 15 16  1  0
 16 17  1  0
 17 18  2  0
 18 19  1  0
 19 20  2  0
 20 21  1  0
 12 22  2  0
  5 23  1  0
 23 24  2  0
 24  2  1  0
 22  8  1  0
 21 13  2  0
 21 16  1  0
M  END
>  <Compound_ID>  (497) 
CHEMBL513330

>  <Molecule Name>  (497) 
GW781673X

>  <Molecular Weight>  (497) 
336.79

>  <AlogP>  (497) 
3.45

>  <Smiles>  (497) 
Clc1ccc(CNc2nccc(-c3cnn4ncccc34)n2)cc1

>  <Standard Type>  (497) 
Inhibition

>  <Standard Relation>  (497) 
'='

>  <Standard Units>  (497) 
%

>  <Standard Value>  (497) 
2.92

>  <Assay ChEMBL ID>  (497) 
CHEMBL1962174

>  <Assay Description>  (497) 
GSK_PKIS: SYK mean inhibition at 0.1 uM [Nanosyn]

>  <BAO Format ID>  (497) 
BAO_0000357

>  <BAO Label>  (497) 
single protein format

>  <Assay Organism>  (497) 
None

>  <Target ChEMBL ID>  (497) 
CHEMBL2599

>  <Target Name>  (497) 
Tyrosine-protein kinase SYK

>  <Target Organism>  (497) 
Homo sapiens

>  <Target Type>  (497) 
SINGLE PROTEIN

>  <Document ChEMBL ID>  (497) 
CHEMBL1961873

>  <Source Description>  (497) 
GSK Published Kinase Inhibitor Set

>  <Document Journal>  (497) 
nan

>  <Document Year>  (497) 
nan

>  <Active>  (497) 
0.0

>  <bits>  (497) 
<rdkit.DataStructs.cDataStructs.ExplicitBitVect object at 0x00000193F33EAEA0>

>  <Group>  (497) 
G2

$$$$

     RDKit          2D

 25 29  0  0  0  0  0  0  0  0999 V2000
    3.0000    0.0000    0.0000 C   0  0  0  0  0  0  0  0  0  0  0  0
    1.5000    0.0000    0.0000 C   0  0  0  0  0  0  0  0  0  0  0  0
    0.7500   -1.2990    0.0000 C   0  0  0  0  0  0  0  0  0  0  0  0
   -0.7500   -1.2990    0.0000 C   0  0  0  0  0  0  0  0  0  0  0  0
   -1.5000    0.0000    0.0000 C   0  0  0  0  0  0  0  0  0  0  0  0
   -2.9672    0.3119    0.0000 C   0  0  0  0  0  0  0  0  0  0  0  0
   -3.1240    1.8037    0.0000 C   0  0  0  0  0  0  0  0  0  0  0  0
   -4.4231    2.5537    0.0000 C   0  0  0  0  0  0  0  0  0  0  0  0
   -4.5798    4.0454    0.0000 N   0  0  0  0  0  0  0  0  0  0  0  0
   -6.0471    4.3573    0.0000 N   0  0  0  0  0  0  0  0  0  0  0  0
   -6.7971    3.0583    0.0000 C   0  0  0  0  0  0  0  0  0  0  0  0
   -8.2643    2.7464    0.0000 C   0  0  0  0  0  0  0  0  0  0  0  0
   -8.7278    1.3198    0.0000 C   0  0  0  0  0  0  0  0  0  0  0  0
   -7.7241    0.2051    0.0000 C   0  0  0  0  0  0  0  0  0  0  0  0
   -8.1876   -1.2215    0.0000 N   0  0  0  0  0  0  0  0  0  0  0  0
   -9.6549   -1.5334    0.0000 C   0  0  0  0  0  0  0  0  0  0  0  0
  -10.2650   -2.9037    0.0000 C   0  0  0  0  0  0  0  0  0  0  0  0
  -11.7568   -2.7469    0.0000 C   0  0  0  0  0  0  0  0  0  0  0  0
  -12.0686   -1.2797    0.0000 N   0  0  0  0  0  0  0  0  0  0  0  0
  -10.7696   -0.5297    0.0000 C   0  0  0  0  0  0  0  0  0  0  0  0
   -6.2569    0.5170    0.0000 C   0  0  0  0  0  0  0  0  0  0  0  0
   -5.7934    1.9435    0.0000 C   0  0  0  0  0  0  0  0  0  0  0  0
   -1.7537    2.4138    0.0000 N   0  0  0  0  0  0  0  0  0  0  0  0
   -0.7500    1.2990    0.0000 C   0  0  0  0  0  0  0  0  0  0  0  0
    0.7500    1.2990    0.0000 C   0  0  0  0  0  0  0  0  0  0  0  0
  1  2  1  0
  2  3  2  0
  3  4  1  0
  4  5  2  0
  5  6  1  0
  6  7  2  0
  7  8  1  0
  8  9  2  0
  9 10  1  0
 10 11  1  0
 11 12  2  0
 12 13  1  0
 13 14  2  0
 14 15  1  0
 15 16  1  0
 16 17  1  0
 17 18  1  0
 18 19  1  0
 19 20  1  0
 14 21  1  0
 21 22  2  0
  7 23  1  0
 23 24  1  0
 24 25  2  0
 25  2  1  0
 24  5  1  0
 22  8  1  0
 22 11  1  0
 20 16  1  0
M  END
>  <Compound_ID>  (498) 
CHEMBL1684654

>  <Molecule Name>  (498) 
nan

>  <Molecular Weight>  (498) 
331.42

>  <AlogP>  (498) 
3.79

>  <Smiles>  (498) 
Cc1ccc2cc(-c3n[nH]c4ccc(NC5CCNC5)cc34)[nH]c2c1

>  <Standard Type>  (498) 
Inhibition

>  <Standard Relation>  (498) 
'='

>  <Standard Units>  (498) 
%

>  <Standard Value>  (498) 
0.0

>  <Assay ChEMBL ID>  (498) 
CHEMBL1686092

>  <Assay Description>  (498) 
Inhibition of Syk at 1 uM

>  <BAO Format ID>  (498) 
BAO_0000357

>  <BAO Label>  (498) 
single protein format

>  <Assay Organism>  (498) 
None

>  <Target ChEMBL ID>  (498) 
CHEMBL2599

>  <Target Name>  (498) 
Tyrosine-protein kinase SYK

>  <Target Organism>  (498) 
Homo sapiens

>  <Target Type>  (498) 
SINGLE PROTEIN

>  <Document ChEMBL ID>  (498) 
CHEMBL1681705

>  <Source Description>  (498) 
Scientific Literature

>  <Document Journal>  (498) 
Bioorg Med Chem Lett

>  <Document Year>  (498) 
2011.0

>  <Active>  (498) 
0.0

>  <bits>  (498) 
<rdkit.DataStructs.cDataStructs.ExplicitBitVect object at 0x00000193F33E8970>

>  <Group>  (498) 
G2

$$$$

     RDKit          2D

 27 30  0  0  0  0  0  0  0  0999 V2000
    3.0000    0.0000    0.0000 F   0  0  0  0  0  0  0  0  0  0  0  0
    1.5000    0.0000    0.0000 C   0  0  0  0  0  0  0  0  0  0  0  0
    0.7500   -1.2990    0.0000 C   0  0  0  0  0  0  0  0  0  0  0  0
   -0.7500   -1.2990    0.0000 C   0  0  0  0  0  0  0  0  0  0  0  0
   -1.5000    0.0000    0.0000 C   0  0  0  0  0  0  0  0  0  0  0  0
   -3.0000    0.0000    0.0000 C   0  0  0  0  0  0  0  0  0  0  0  0
   -3.8817   -1.2135    0.0000 N   0  0  0  0  0  0  0  0  0  0  0  0
   -5.3083   -0.7500    0.0000 C   0  0  0  0  0  0  0  0  0  0  0  0
   -5.3083    0.7500    0.0000 N   0  0  0  0  0  0  0  0  0  0  0  0
   -6.5218    1.6317    0.0000 C   0  0  0  0  0  0  0  0  0  0  0  0
   -6.3650    3.1235    0.0000 C   0  0  0  0  0  0  0  0  0  0  0  0
   -7.5785    4.0051    0.0000 C   0  0  0  0  0  0  0  0  0  0  0  0
   -7.4217    5.4969    0.0000 N   0  0  0  0  0  0  0  0  0  0  0  0
   -6.0514    6.1070    0.0000 C   0  0  0  0  0  0  0  0  0  0  0  0
   -5.8946    7.5988    0.0000 C   0  0  0  0  0  0  0  0  0  0  0  0
   -7.1081    8.4805    0.0000 O   0  0  0  0  0  0  0  0  0  0  0  0
   -8.4785    7.8704    0.0000 C   0  0  0  0  0  0  0  0  0  0  0  0
   -8.6353    6.3786    0.0000 C   0  0  0  0  0  0  0  0  0  0  0  0
   -3.8817    1.2135    0.0000 C   0  0  0  0  0  0  0  0  0  0  0  0
   -3.4182    2.6401    0.0000 C   0  0  0  0  0  0  0  0  0  0  0  0
   -1.9509    2.9520    0.0000 C   0  0  0  0  0  0  0  0  0  0  0  0
   -1.4874    4.3786    0.0000 C   0  0  0  0  0  0  0  0  0  0  0  0
   -2.4911    5.4933    0.0000 N   0  0  0  0  0  0  0  0  0  0  0  0
   -3.9583    5.1814    0.0000 C   0  0  0  0  0  0  0  0  0  0  0  0
   -4.4218    3.7548    0.0000 C   0  0  0  0  0  0  0  0  0  0  0  0
   -0.7500    1.2990    0.0000 C   0  0  0  0  0  0  0  0  0  0  0  0
    0.7500    1.2990    0.0000 C   0  0  0  0  0  0  0  0  0  0  0  0
  1  2  1  0
  2  3  2  0
  3  4  1  0
  4  5  2  0
  5  6  1  0
  6  7  1  0
  7  8  2  0
  8  9  1  0
  9 10  1  0
 10 11  1  0
 11 12  1  0
 12 13  1  0
 13 14  1  0
 14 15  1  0
 15 16  1  0
 16 17  1  0
 17 18  1  0
  9 19  1  0
 19 20  1  0
 20 21  2  0
 21 22  1  0
 22 23  2  0
 23 24  1  0
 24 25  2  0
  5 26  1  0
 26 27  2  0
 27  2  1  0
 19  6  2  0
 25 20  1  0
 18 13  1  0
M  END
>  <Compound_ID>  (499) 
CHEMBL14112

>  <Molecule Name>  (499) 
SB-210313

>  <Molecular Weight>  (499) 
366.44

>  <AlogP>  (499) 
3.47

>  <Smiles>  (499) 
Fc1ccc(-c2ncn(CCCN3CCOCC3)c2-c2ccncc2)cc1

>  <Standard Type>  (499) 
Inhibition

>  <Standard Relation>  (499) 
'='

>  <Standard Units>  (499) 
%

>  <Standard Value>  (499) 
2.97

>  <Assay ChEMBL ID>  (499) 
CHEMBL1962174

>  <Assay Description>  (499) 
GSK_PKIS: SYK mean inhibition at 0.1 uM [Nanosyn]

>  <BAO Format ID>  (499) 
BAO_0000357

>  <BAO Label>  (499) 
single protein format

>  <Assay Organism>  (499) 
None

>  <Target ChEMBL ID>  (499) 
CHEMBL2599

>  <Target Name>  (499) 
Tyrosine-protein kinase SYK

>  <Target Organism>  (499) 
Homo sapiens

>  <Target Type>  (499) 
SINGLE PROTEIN

>  <Document ChEMBL ID>  (499) 
CHEMBL1961873

>  <Source Description>  (499) 
GSK Published Kinase Inhibitor Set

>  <Document Journal>  (499) 
nan

>  <Document Year>  (499) 
nan

>  <Active>  (499) 
0.0

>  <bits>  (499) 
<rdkit.DataStructs.cDataStructs.ExplicitBitVect object at 0x00000193F33EAF10>

>  <Group>  (499) 
G2

$$$$

     RDKit          2D

 28 31  0  0  0  0  0  0  0  0999 V2000
   -2.0143    8.6263    0.0000 C   0  0  0  0  0  0  0  0  0  0  0  0
   -3.4408    8.1628    0.0000 C   0  0  0  0  0  0  0  0  0  0  0  0
   -3.7527    6.6955    0.0000 C   0  0  0  0  0  0  0  0  0  0  0  0
   -2.6380    5.6918    0.0000 C   0  0  0  0  0  0  0  0  0  0  0  0
   -1.2114    6.1554    0.0000 O   0  0  0  0  0  0  0  0  0  0  0  0
   -2.9499    4.2246    0.0000 N   0  0  0  0  0  0  0  0  0  0  0  0
   -1.8351    3.2209    0.0000 C   0  0  0  0  0  0  0  0  0  0  0  0
   -0.4086    3.6844    0.0000 C   0  0  0  0  0  0  0  0  0  0  0  0
    0.7062    2.6807    0.0000 C   0  0  0  0  0  0  0  0  0  0  0  0
    0.3943    1.2135    0.0000 C   0  0  0  0  0  0  0  0  0  0  0  0
    1.2760    0.0000    0.0000 N   0  0  0  0  0  0  0  0  0  0  0  0
    0.3943   -1.2135    0.0000 N   0  0  0  0  0  0  0  0  0  0  0  0
   -1.0323   -0.7500    0.0000 C   0  0  0  0  0  0  0  0  0  0  0  0
   -1.0323    0.7500    0.0000 C   0  0  0  0  0  0  0  0  0  0  0  0
   -2.1470    1.7537    0.0000 C   0  0  0  0  0  0  0  0  0  0  0  0
   -5.1793    6.2320    0.0000 C   0  0  0  0  0  0  0  0  0  0  0  0
   -5.4912    4.7648    0.0000 C   0  0  0  0  0  0  0  0  0  0  0  0
   -6.9177    4.3013    0.0000 C   0  0  0  0  0  0  0  0  0  0  0  0
   -7.2296    2.8340    0.0000 C   0  0  0  0  0  0  0  0  0  0  0  0
   -6.1149    1.8303    0.0000 C   0  0  0  0  0  0  0  0  0  0  0  0
   -6.4268    0.3631    0.0000 Cl  0  0  0  0  0  0  0  0  0  0  0  0
   -4.6883    2.2939    0.0000 C   0  0  0  0  0  0  0  0  0  0  0  0
   -3.5736    1.2902    0.0000 Cl  0  0  0  0  0  0  0  0  0  0  0  0
   -4.3764    3.7611    0.0000 C   0  0  0  0  0  0  0  0  0  0  0  0
   -6.2940    7.2357    0.0000 C   0  0  0  0  0  0  0  0  0  0  0  0
   -5.9821    8.7029    0.0000 C   0  0  0  0  0  0  0  0  0  0  0  0
   -7.0969    9.7066    0.0000 O   0  0  0  0  0  0  0  0  0  0  0  0
   -4.5556    9.1664    0.0000 N   0  0  0  0  0  0  0  0  0  0  0  0
  1  2  1  0
  2  3  2  0
  3  4  1  0
  4  5  2  0
  4  6  1  0
  6  7  1  0
  7  8  2  0
  8  9  1  0
  9 10  2  0
 10 11  1  0
 11 12  1  0
 12 13  2  0
 13 14  1  0
 14 15  2  0
  3 16  1  0
 16 17  1  0
 17 18  2  0
 18 19  1  0
 19 20  2  0
 20 21  1  0
 20 22  1  0
 22 23  1  0
 22 24  2  0
 16 25  1  0
 25 26  1  0
 26 27  2  0
 26 28  1  0
 28  2  1  0
 15  7  1  0
 24 17  1  0
 14 10  1  0
M  END
>  <Compound_ID>  (500) 
CHEMBL374453

>  <Molecule Name>  (500) 
GSK-299115A

>  <Molecular Weight>  (500) 
415.28

>  <AlogP>  (500) 
4.39

>  <Smiles>  (500) 
CC1=C(C(=O)Nc2ccc3[nH]ncc3c2)C(c2ccc(Cl)c(Cl)c2)CC(=O)N1

>  <Standard Type>  (500) 
Inhibition

>  <Standard Relation>  (500) 
'='

>  <Standard Units>  (500) 
%

>  <Standard Value>  (500) 
1.43

>  <Assay ChEMBL ID>  (500) 
CHEMBL1962175

>  <Assay Description>  (500) 
GSK_PKIS: SYK mean inhibition at 1 uM [Nanosyn]

>  <BAO Format ID>  (500) 
BAO_0000357

>  <BAO Label>  (500) 
single protein format

>  <Assay Organism>  (500) 
None

>  <Target ChEMBL ID>  (500) 
CHEMBL2599

>  <Target Name>  (500) 
Tyrosine-protein kinase SYK

>  <Target Organism>  (500) 
Homo sapiens

>  <Target Type>  (500) 
SINGLE PROTEIN

>  <Document ChEMBL ID>  (500) 
CHEMBL1961873

>  <Source Description>  (500) 
GSK Published Kinase Inhibitor Set

>  <Document Journal>  (500) 
nan

>  <Document Year>  (500) 
nan

>  <Active>  (500) 
0.0

>  <bits>  (500) 
<rdkit.DataStructs.cDataStructs.ExplicitBitVect object at 0x00000193F33EA880>

>  <Group>  (500) 
G2

$$$$

     RDKit          2D

 24 26  0  0  0  0  0  0  0  0999 V2000
    3.7500   -1.2990    0.0000 C   0  0  0  0  0  0  0  0  0  0  0  0
    3.0000    0.0000    0.0000 O   0  0  0  0  0  0  0  0  0  0  0  0
    1.5000    0.0000    0.0000 C   0  0  0  0  0  0  0  0  0  0  0  0
    0.7500   -1.2990    0.0000 C   0  0  0  0  0  0  0  0  0  0  0  0
   -0.7500   -1.2990    0.0000 C   0  0  0  0  0  0  0  0  0  0  0  0
   -1.5000    0.0000    0.0000 C   0  0  0  0  0  0  0  0  0  0  0  0
   -2.9672    0.3119    0.0000 C   0  0  0  0  0  0  0  0  0  0  0  0
   -4.1807   -0.5698    0.0000 C   0  0  0  0  0  0  0  0  0  0  0  0
   -5.5511    0.0403    0.0000 C   0  0  0  0  0  0  0  0  0  0  0  0
   -5.7079    1.5321    0.0000 N   0  0  0  0  0  0  0  0  0  0  0  0
   -4.4943    2.4138    0.0000 C   0  0  0  0  0  0  0  0  0  0  0  0
   -4.6511    3.9055    0.0000 C   0  0  0  0  0  0  0  0  0  0  0  0
   -4.8079    5.3973    0.0000 F   0  0  0  0  0  0  0  0  0  0  0  0
   -6.1429    3.7487    0.0000 F   0  0  0  0  0  0  0  0  0  0  0  0
   -3.1593    4.0623    0.0000 F   0  0  0  0  0  0  0  0  0  0  0  0
   -3.1240    1.8037    0.0000 C   0  0  0  0  0  0  0  0  0  0  0  0
   -1.7537    2.4138    0.0000 N   0  0  0  0  0  0  0  0  0  0  0  0
   -1.4418    3.8810    0.0000 C   0  0  0  0  0  0  0  0  0  0  0  0
   -0.0152    4.3445    0.0000 C   0  0  0  0  0  0  0  0  0  0  0  0
    0.2966    5.8117    0.0000 C   0  0  0  0  0  0  0  0  0  0  0  0
    1.7232    6.2752    0.0000 C   0  0  0  0  0  0  0  0  0  0  0  0
    2.0351    7.7425    0.0000 N   0  0  0  0  0  0  0  0  0  0  0  0
   -0.7500    1.2990    0.0000 C   0  0  0  0  0  0  0  0  0  0  0  0
    0.7500    1.2990    0.0000 C   0  0  0  0  0  0  0  0  0  0  0  0
  1  2  1  0
  2  3  1  0
  3  4  2  0
  4  5  1  0
  5  6  2  0
  6  7  1  0
  7  8  2  0
  8  9  1  0
  9 10  2  0
 10 11  1  0
 11 12  1  0
 12 13  1  0
 12 14  1  0
 12 15  1  0
 11 16  2  0
 16 17  1  0
 17 18  1  0
 18 19  1  0
 19 20  1  0
 20 21  1  0
 21 22  1  0
 17 23  1  0
 23 24  2  0
 24  3  1  0
 23  6  1  0
 16  7  1  0
M  END
>  <Compound_ID>  (501) 
CHEMBL2012574

>  <Molecule Name>  (501) 
nan

>  <Molecular Weight>  (501) 
337.35

>  <AlogP>  (501) 
3.96

>  <Smiles>  (501) 
COc1ccc2c3ccnc(C(F)(F)F)c3n(CCCCN)c2c1

>  <Standard Type>  (501) 
Inhibition

>  <Standard Relation>  (501) 
'='

>  <Standard Units>  (501) 
%

>  <Standard Value>  (501) 
0.0

>  <Assay ChEMBL ID>  (501) 
CHEMBL2014509

>  <Assay Description>  (501) 
Inhibition of SYK at 10 uM

>  <BAO Format ID>  (501) 
BAO_0000357

>  <BAO Label>  (501) 
single protein format

>  <Assay Organism>  (501) 
None

>  <Target ChEMBL ID>  (501) 
CHEMBL2599

>  <Target Name>  (501) 
Tyrosine-protein kinase SYK

>  <Target Organism>  (501) 
Homo sapiens

>  <Target Type>  (501) 
SINGLE PROTEIN

>  <Document ChEMBL ID>  (501) 
CHEMBL2010722

>  <Source Description>  (501) 
Scientific Literature

>  <Document Journal>  (501) 
Bioorg Med Chem Lett

>  <Document Year>  (501) 
2012.0

>  <Active>  (501) 
0.0

>  <bits>  (501) 
<rdkit.DataStructs.cDataStructs.ExplicitBitVect object at 0x00000193F33EB3E0>

>  <Group>  (501) 
G2

$$$$

     RDKit          2D

 34 38  0  0  0  0  0  0  0  0999 V2000
    3.7500   -1.2990    0.0000 C   0  0  0  0  0  0  0  0  0  0  0  0
    3.0000    0.0000    0.0000 O   0  0  0  0  0  0  0  0  0  0  0  0
    1.5000    0.0000    0.0000 C   0  0  0  0  0  0  0  0  0  0  0  0
    0.7500   -1.2990    0.0000 C   0  0  0  0  0  0  0  0  0  0  0  0
   -0.7500   -1.2990    0.0000 C   0  0  0  0  0  0  0  0  0  0  0  0
   -1.5000    0.0000    0.0000 C   0  0  0  0  0  0  0  0  0  0  0  0
   -3.0000    0.0000    0.0000 C   0  0  0  0  0  0  0  0  0  0  0  0
   -3.7500    1.2990    0.0000 C   0  0  0  0  0  0  0  0  0  0  0  0
   -5.2500    1.2990    0.0000 C   0  0  0  0  0  0  0  0  0  0  0  0
   -6.1317    0.0855    0.0000 C   0  0  0  0  0  0  0  0  0  0  0  0
   -5.6682   -1.3411    0.0000 C   0  0  0  0  0  0  0  0  0  0  0  0
   -6.6718   -2.4558    0.0000 C   0  0  0  0  0  0  0  0  0  0  0  0
   -6.2083   -3.8824    0.0000 C   0  0  0  0  0  0  0  0  0  0  0  0
   -4.7411   -4.1942    0.0000 N   0  0  0  0  0  0  0  0  0  0  0  0
   -3.7374   -3.0795    0.0000 C   0  0  0  0  0  0  0  0  0  0  0  0
   -4.2009   -1.6529    0.0000 C   0  0  0  0  0  0  0  0  0  0  0  0
   -7.5583    0.5490    0.0000 N   0  0  0  0  0  0  0  0  0  0  0  0
   -7.5583    2.0490    0.0000 C   0  0  0  0  0  0  0  0  0  0  0  0
   -8.7718    2.9307    0.0000 C   0  0  0  0  0  0  0  0  0  0  0  0
   -8.6150    4.4225    0.0000 C   0  0  0  0  0  0  0  0  0  0  0  0
   -9.8285    5.3042    0.0000 C   0  0  0  0  0  0  0  0  0  0  0  0
  -11.1988    4.6941    0.0000 C   0  0  0  0  0  0  0  0  0  0  0  0
  -12.4124    5.5757    0.0000 S   0  0  0  0  0  3  0  0  0  0  0  0
  -12.2556    7.0675    0.0000 C   0  0  0  0  0  0  0  0  0  0  0  0
  -13.7827    4.9656    0.0000 O   0  0  0  0  0  1  0  0  0  0  0  0
  -11.3556    3.2023    0.0000 C   0  0  0  0  0  0  0  0  0  0  0  0
  -10.1421    2.3206    0.0000 C   0  0  0  0  0  0  0  0  0  0  0  0
  -10.2989    0.8288    0.0000 C   0  0  0  0  0  0  0  0  0  0  0  0
   -6.1317    2.5126    0.0000 N   0  0  0  0  0  0  0  0  0  0  0  0
   -5.6682    3.9391    0.0000 C   0  0  0  0  0  0  0  0  0  0  0  0
   -3.0000    2.5981    0.0000 C   0  0  0  0  0  0  0  0  0  0  0  0
   -1.5000    2.5981    0.0000 C   0  0  0  0  0  0  0  0  0  0  0  0
   -0.7500    1.2990    0.0000 C   0  0  0  0  0  0  0  0  0  0  0  0
    0.7500    1.2990    0.0000 C   0  0  0  0  0  0  0  0  0  0  0  0
  1  2  1  0
  2  3  1  0
  3  4  2  0
  4  5  1  0
  5  6  2  0
  6  7  1  0
  7  8  2  0
  8  9  1  0
  9 10  2  0
 10 11  1  0
 11 12  2  0
 12 13  1  0
 13 14  2  0
 14 15  1  0
 15 16  2  0
 10 17  1  0
 17 18  2  0
 18 19  1  0
 19 20  2  0
 20 21  1  0
 21 22  2  0
 22 23  1  0
 23 24  1  0
 23 25  1  0
 22 26  1  0
 26 27  2  0
 27 28  1  0
 18 29  1  0
 29 30  1  0
  8 31  1  0
 31 32  2  0
 32 33  1  0
 33 34  2  0
 34  3  1  0
 33  6  1  0
 29  9  1  0
 16 11  1  0
 27 19  1  0
M  CHG  2  23   1  25  -1
M  END
>  <Compound_ID>  (502) 
CHEMBL237570

>  <Molecule Name>  (502) 
nan

>  <Molecular Weight>  (502) 
467.59

>  <AlogP>  (502) 
6.02

>  <Smiles>  (502) 
COc1ccc2cc(-c3c(-c4ccncc4)nc(-c4ccc([S+](C)[O-])cc4C)n3C)ccc2c1

>  <Standard Type>  (502) 
Inhibition

>  <Standard Relation>  (502) 
'='

>  <Standard Units>  (502) 
%

>  <Standard Value>  (502) 
0.6

>  <Assay ChEMBL ID>  (502) 
CHEMBL1962175

>  <Assay Description>  (502) 
GSK_PKIS: SYK mean inhibition at 1 uM [Nanosyn]

>  <BAO Format ID>  (502) 
BAO_0000357

>  <BAO Label>  (502) 
single protein format

>  <Assay Organism>  (502) 
None

>  <Target ChEMBL ID>  (502) 
CHEMBL2599

>  <Target Name>  (502) 
Tyrosine-protein kinase SYK

>  <Target Organism>  (502) 
Homo sapiens

>  <Target Type>  (502) 
SINGLE PROTEIN

>  <Document ChEMBL ID>  (502) 
CHEMBL1961873

>  <Source Description>  (502) 
GSK Published Kinase Inhibitor Set

>  <Document Journal>  (502) 
nan

>  <Document Year>  (502) 
nan

>  <Active>  (502) 
0.0

>  <bits>  (502) 
<rdkit.DataStructs.cDataStructs.ExplicitBitVect object at 0x00000193F33EB6F0>

>  <Group>  (502) 
G2

$$$$

     RDKit          2D

 16 18  0  0  0  0  0  0  0  0999 V2000
   -2.6401   -3.1891    0.0000 C   0  0  0  0  0  0  0  0  0  0  0  0
   -1.2135   -2.7256    0.0000 N   0  0  0  0  0  0  0  0  0  0  0  0
   -0.0000   -3.6073    0.0000 C   0  0  0  0  0  0  0  0  0  0  0  0
   -0.0000   -5.1073    0.0000 C   0  0  0  0  0  0  0  0  0  0  0  0
    1.2135   -5.9890    0.0000 N   0  0  0  0  0  0  0  0  0  0  0  0
    0.7500   -7.4156    0.0000 O   0  0  0  0  0  0  0  0  0  0  0  0
   -0.7500   -7.4156    0.0000 N   0  0  0  0  0  0  0  0  0  0  0  0
   -1.2135   -5.9890    0.0000 C   0  0  0  0  0  0  0  0  0  0  0  0
   -2.6401   -5.5255    0.0000 N   0  0  0  0  0  0  0  0  0  0  0  0
    1.2135   -2.7256    0.0000 N   0  0  0  0  0  0  0  0  0  0  0  0
    0.7500   -1.2990    0.0000 C   0  0  0  0  0  0  0  0  0  0  0  0
    1.5000    0.0000    0.0000 C   0  0  0  0  0  0  0  0  0  0  0  0
    0.7500    1.2990    0.0000 N   0  0  0  0  0  0  0  0  0  0  0  0
   -0.7500    1.2990    0.0000 C   0  0  0  0  0  0  0  0  0  0  0  0
   -1.5000    0.0000    0.0000 C   0  0  0  0  0  0  0  0  0  0  0  0
   -0.7500   -1.2990    0.0000 C   0  0  0  0  0  0  0  0  0  0  0  0
  1  2  1  0
  2  3  1  0
  3  4  1  0
  4  5  2  0
  5  6  1  0
  6  7  1  0
  7  8  2  0
  8  9  1  0
  3 10  2  0
 10 11  1  0
 11 12  2  0
 12 13  1  0
 13 14  2  0
 14 15  1  0
 15 16  2  0
 16  2  1  0
  8  4  1  0
 16 11  1  0
M  END
>  <Compound_ID>  (503) 
CHEMBL188048

>  <Molecule Name>  (503) 
nan

>  <Molecular Weight>  (503) 
216.2

>  <AlogP>  (503) 
0.60

>  <Smiles>  (503) 
Cn1c(-c2nonc2N)nc2cnccc21

>  <Standard Type>  (503) 
Inhibition

>  <Standard Relation>  (503) 
'='

>  <Standard Units>  (503) 
%

>  <Standard Value>  (503) 
0.59

>  <Assay ChEMBL ID>  (503) 
CHEMBL1962175

>  <Assay Description>  (503) 
GSK_PKIS: SYK mean inhibition at 1 uM [Nanosyn]

>  <BAO Format ID>  (503) 
BAO_0000357

>  <BAO Label>  (503) 
single protein format

>  <Assay Organism>  (503) 
None

>  <Target ChEMBL ID>  (503) 
CHEMBL2599

>  <Target Name>  (503) 
Tyrosine-protein kinase SYK

>  <Target Organism>  (503) 
Homo sapiens

>  <Target Type>  (503) 
SINGLE PROTEIN

>  <Document ChEMBL ID>  (503) 
CHEMBL1961873

>  <Source Description>  (503) 
GSK Published Kinase Inhibitor Set

>  <Document Journal>  (503) 
nan

>  <Document Year>  (503) 
nan

>  <Active>  (503) 
0.0

>  <bits>  (503) 
<rdkit.DataStructs.cDataStructs.ExplicitBitVect object at 0x00000193F33EBED0>

>  <Group>  (503) 
G2

$$$$

     RDKit          2D

 21 23  0  0  0  0  0  0  0  0999 V2000
   -7.7227   -2.1088    0.0000 C   0  0  0  0  0  0  0  0  0  0  0  0
   -6.2961   -1.6453    0.0000 N   0  0  0  0  0  0  0  0  0  0  0  0
   -5.9843   -0.1781    0.0000 C   0  0  0  0  0  0  0  0  0  0  0  0
   -5.1814   -2.6490    0.0000 C   0  0  0  0  0  0  0  0  0  0  0  0
   -3.7548   -2.1855    0.0000 C   0  0  0  0  0  0  0  0  0  0  0  0
   -2.6401   -3.1891    0.0000 C   0  0  0  0  0  0  0  0  0  0  0  0
   -1.2135   -2.7256    0.0000 N   0  0  0  0  0  0  0  0  0  0  0  0
   -0.0000   -3.6073    0.0000 C   0  0  0  0  0  0  0  0  0  0  0  0
   -0.0000   -5.1073    0.0000 C   0  0  0  0  0  0  0  0  0  0  0  0
    1.2135   -5.9890    0.0000 N   0  0  0  0  0  0  0  0  0  0  0  0
    0.7500   -7.4156    0.0000 O   0  0  0  0  0  0  0  0  0  0  0  0
   -0.7500   -7.4156    0.0000 N   0  0  0  0  0  0  0  0  0  0  0  0
   -1.2135   -5.9890    0.0000 C   0  0  0  0  0  0  0  0  0  0  0  0
   -2.6401   -5.5255    0.0000 N   0  0  0  0  0  0  0  0  0  0  0  0
    1.2135   -2.7256    0.0000 N   0  0  0  0  0  0  0  0  0  0  0  0
    0.7500   -1.2990    0.0000 C   0  0  0  0  0  0  0  0  0  0  0  0
    1.5000    0.0000    0.0000 C   0  0  0  0  0  0  0  0  0  0  0  0
    0.7500    1.2990    0.0000 N   0  0  0  0  0  0  0  0  0  0  0  0
   -0.7500    1.2990    0.0000 C   0  0  0  0  0  0  0  0  0  0  0  0
   -1.5000    0.0000    0.0000 C   0  0  0  0  0  0  0  0  0  0  0  0
   -0.7500   -1.2990    0.0000 C   0  0  0  0  0  0  0  0  0  0  0  0
  1  2  1  0
  2  3  1  0
  2  4  1  0
  4  5  1  0
  5  6  1  0
  6  7  1  0
  7  8  1  0
  8  9  1  0
  9 10  2  0
 10 11  1  0
 11 12  1  0
 12 13  2  0
 13 14  1  0
  8 15  2  0
 15 16  1  0
 16 17  2  0
 17 18  1  0
 18 19  2  0
 19 20  1  0
 20 21  2  0
 21  7  1  0
 13  9  1  0
 21 16  1  0
M  END
>  <Compound_ID>  (504) 
CHEMBL191105

>  <Molecule Name>  (504) 
nan

>  <Molecular Weight>  (504) 
287.33

>  <AlogP>  (504) 
1.02

>  <Smiles>  (504) 
CN(C)CCCn1c(-c2nonc2N)nc2cnccc21

>  <Standard Type>  (504) 
Inhibition

>  <Standard Relation>  (504) 
'='

>  <Standard Units>  (504) 
%

>  <Standard Value>  (504) 
-4.3

>  <Assay ChEMBL ID>  (504) 
CHEMBL1962174

>  <Assay Description>  (504) 
GSK_PKIS: SYK mean inhibition at 0.1 uM [Nanosyn]

>  <BAO Format ID>  (504) 
BAO_0000357

>  <BAO Label>  (504) 
single protein format

>  <Assay Organism>  (504) 
None

>  <Target ChEMBL ID>  (504) 
CHEMBL2599

>  <Target Name>  (504) 
Tyrosine-protein kinase SYK

>  <Target Organism>  (504) 
Homo sapiens

>  <Target Type>  (504) 
SINGLE PROTEIN

>  <Document ChEMBL ID>  (504) 
CHEMBL1961873

>  <Source Description>  (504) 
GSK Published Kinase Inhibitor Set

>  <Document Journal>  (504) 
nan

>  <Document Year>  (504) 
nan

>  <Active>  (504) 
0.0

>  <bits>  (504) 
<rdkit.DataStructs.cDataStructs.ExplicitBitVect object at 0x00000193F33EAC70>

>  <Group>  (504) 
G2

$$$$

     RDKit          2D

 31 34  0  0  0  0  0  0  0  0999 V2000
   -3.7548   -2.1855    0.0000 C   0  0  0  0  0  0  0  0  0  0  0  0
   -2.6401   -3.1891    0.0000 C   0  0  0  0  0  0  0  0  0  0  0  0
   -1.2135   -2.7256    0.0000 N   0  0  0  0  0  0  0  0  0  0  0  0
   -0.0000   -3.6073    0.0000 C   0  0  0  0  0  0  0  0  0  0  0  0
   -0.0000   -5.1073    0.0000 C   0  0  0  0  0  0  0  0  0  0  0  0
    1.2135   -5.9890    0.0000 N   0  0  0  0  0  0  0  0  0  0  0  0
    0.7500   -7.4156    0.0000 O   0  0  0  0  0  0  0  0  0  0  0  0
   -0.7500   -7.4156    0.0000 N   0  0  0  0  0  0  0  0  0  0  0  0
   -1.2135   -5.9890    0.0000 C   0  0  0  0  0  0  0  0  0  0  0  0
   -2.6401   -5.5255    0.0000 N   0  0  0  0  0  0  0  0  0  0  0  0
    1.2135   -2.7256    0.0000 N   0  0  0  0  0  0  0  0  0  0  0  0
    0.7500   -1.2990    0.0000 C   0  0  0  0  0  0  0  0  0  0  0  0
    1.5000    0.0000    0.0000 C   0  0  0  0  0  0  0  0  0  0  0  0
    3.0000    0.0000    0.0000 C   0  0  0  0  0  0  0  0  0  0  0  0
    4.5000    0.0000    0.0000 C   0  0  0  0  0  0  0  0  0  0  0  0
    6.0000    0.0000    0.0000 C   0  0  0  0  0  0  0  0  0  0  0  0
    6.0000   -1.5000    0.0000 C   0  0  0  0  0  0  0  0  0  0  0  0
    6.0000    1.5000    0.0000 C   0  0  0  0  0  0  0  0  0  0  0  0
    7.5000    0.0000    0.0000 O   0  0  0  0  0  0  0  0  0  0  0  0
    0.7500    1.2990    0.0000 N   0  0  0  0  0  0  0  0  0  0  0  0
   -0.7500    1.2990    0.0000 C   0  0  0  0  0  0  0  0  0  0  0  0
   -1.5000    0.0000    0.0000 C   0  0  0  0  0  0  0  0  0  0  0  0
   -3.0000    0.0000    0.0000 O   0  0  0  0  0  0  0  0  0  0  0  0
   -3.7500    1.2990    0.0000 C   0  0  0  0  0  0  0  0  0  0  0  0
   -5.2500    1.2990    0.0000 C   0  0  0  0  0  0  0  0  0  0  0  0
   -6.0000    2.5981    0.0000 C   0  0  0  0  0  0  0  0  0  0  0  0
   -7.5000    2.5981    0.0000 C   0  0  0  0  0  0  0  0  0  0  0  0
   -8.2500    1.2990    0.0000 N   0  0  0  0  0  0  0  0  0  0  0  0
   -7.5000    0.0000    0.0000 C   0  0  0  0  0  0  0  0  0  0  0  0
   -6.0000    0.0000    0.0000 C   0  0  0  0  0  0  0  0  0  0  0  0
   -0.7500   -1.2990    0.0000 C   0  0  0  0  0  0  0  0  0  0  0  0
  1  2  1  0
  2  3  1  0
  3  4  1  0
  4  5  1  0
  5  6  2  0
  6  7  1  0
  7  8  1  0
  8  9  2  0
  9 10  1  0
  4 11  2  0
 11 12  1  0
 12 13  2  0
 13 14  1  0
 14 15  3  0
 15 16  1  0
 16 17  1  0
 16 18  1  0
 16 19  1  0
 13 20  1  0
 20 21  2  0
 21 22  1  0
 22 23  1  0
 23 24  1  0
 24 25  1  0
 25 26  1  0
 26 27  1  0
 27 28  1  0
 28 29  1  0
 29 30  1  0
 22 31  2  0
 31  3  1  0
  9  5  1  0
 31 12  1  0
 30 25  1  0
M  END
>  <Compound_ID>  (505) 
CHEMBL1794065

>  <Molecule Name>  (505) 
GSK-554170A

>  <Molecular Weight>  (505) 
539.52

>  <AlogP>  (505) 
1.58

>  <Smiles>  (505) 
CCn1c(-c2nonc2N)nc2c(C#CC(C)(C)O)ncc(OCC3CCNCC3)c21

>  <Standard Type>  (505) 
Inhibition

>  <Standard Relation>  (505) 
'='

>  <Standard Units>  (505) 
%

>  <Standard Value>  (505) 
-0.6

>  <Assay ChEMBL ID>  (505) 
CHEMBL1962175

>  <Assay Description>  (505) 
GSK_PKIS: SYK mean inhibition at 1 uM [Nanosyn]

>  <BAO Format ID>  (505) 
BAO_0000357

>  <BAO Label>  (505) 
single protein format

>  <Assay Organism>  (505) 
None

>  <Target ChEMBL ID>  (505) 
CHEMBL2599

>  <Target Name>  (505) 
Tyrosine-protein kinase SYK

>  <Target Organism>  (505) 
Homo sapiens

>  <Target Type>  (505) 
SINGLE PROTEIN

>  <Document ChEMBL ID>  (505) 
CHEMBL1961873

>  <Source Description>  (505) 
GSK Published Kinase Inhibitor Set

>  <Document Journal>  (505) 
nan

>  <Document Year>  (505) 
nan

>  <Active>  (505) 
0.0

>  <bits>  (505) 
<rdkit.DataStructs.cDataStructs.ExplicitBitVect object at 0x00000193F33E9D90>

>  <Group>  (505) 
G2

$$$$

     RDKit          2D

 32 36  0  0  0  0  0  0  0  0999 V2000
    1.5000    0.0000    0.0000 C   0  0  0  0  0  0  0  0  0  0  0  0
    0.7500   -1.2990    0.0000 C   0  0  0  0  0  0  0  0  0  0  0  0
   -0.7500   -1.2990    0.0000 C   0  0  0  0  0  0  0  0  0  0  0  0
   -1.5000    0.0000    0.0000 C   0  0  0  0  0  0  0  0  0  0  0  0
   -3.0000    0.0000    0.0000 C   0  0  0  0  0  0  0  0  0  0  0  0
   -3.8817   -1.2135    0.0000 N   0  0  0  0  0  0  0  0  0  0  0  0
   -5.3083   -0.7500    0.0000 N   0  0  0  0  0  0  0  0  0  0  0  0
   -5.3083    0.7500    0.0000 C   0  0  0  0  0  0  0  0  0  0  0  0
   -3.8817    1.2135    0.0000 C   0  0  0  0  0  0  0  0  0  0  0  0
   -3.4182    2.6401    0.0000 C   0  0  0  0  0  0  0  0  0  0  0  0
   -1.9509    2.9520    0.0000 C   0  0  0  0  0  0  0  0  0  0  0  0
   -1.4874    4.3786    0.0000 C   0  0  0  0  0  0  0  0  0  0  0  0
   -2.4911    5.4933    0.0000 N   0  0  0  0  0  0  0  0  0  0  0  0
   -3.9583    5.1814    0.0000 C   0  0  0  0  0  0  0  0  0  0  0  0
   -4.9620    6.2961    0.0000 C   0  0  0  0  0  0  0  0  0  0  0  0
   -4.4985    7.7227    0.0000 C   0  0  0  0  0  0  0  0  0  0  0  0
   -5.5022    8.8374    0.0000 C   0  0  0  0  0  0  0  0  0  0  0  0
   -6.9694    8.5256    0.0000 C   0  0  0  0  0  0  0  0  0  0  0  0
   -7.9731    9.6403    0.0000 O   0  0  0  0  0  0  0  0  0  0  0  0
   -7.5096   11.0669    0.0000 C   0  0  0  0  0  0  0  0  0  0  0  0
   -8.5133   12.1816    0.0000 C   0  0  0  0  0  0  0  0  0  0  0  0
   -8.0498   13.6082    0.0000 N   0  0  0  0  0  0  0  0  0  0  0  0
   -6.5825   13.9200    0.0000 C   0  0  0  0  0  0  0  0  0  0  0  0
   -6.1190   15.3466    0.0000 C   0  0  0  0  0  0  0  0  0  0  0  0
   -7.1227   16.4613    0.0000 O   0  0  0  0  0  0  0  0  0  0  0  0
   -8.5899   16.1495    0.0000 C   0  0  0  0  0  0  0  0  0  0  0  0
   -9.0534   14.7229    0.0000 C   0  0  0  0  0  0  0  0  0  0  0  0
   -7.4329    7.0990    0.0000 C   0  0  0  0  0  0  0  0  0  0  0  0
   -6.4292    5.9843    0.0000 C   0  0  0  0  0  0  0  0  0  0  0  0
   -4.4218    3.7548    0.0000 C   0  0  0  0  0  0  0  0  0  0  0  0
   -0.7500    1.2990    0.0000 N   0  0  0  0  0  0  0  0  0  0  0  0
    0.7500    1.2990    0.0000 C   0  0  0  0  0  0  0  0  0  0  0  0
  1  2  2  0
  2  3  1  0
  3  4  2  0
  4  5  1  0
  5  6  2  0
  6  7  1  0
  7  8  1  0
  8  9  2  0
  9 10  1  0
 10 11  2  0
 11 12  1  0
 12 13  2  0
 13 14  1  0
 14 15  1  0
 15 16  2  0
 16 17  1  0
 17 18  2  0
 18 19  1  0
 19 20  1  0
 20 21  1  0
 21 22  1  0
 22 23  1  0
 23 24  1  0
 24 25  1  0
 25 26  1  0
 26 27  1  0
 18 28  1  0
 28 29  2  0
 14 30  2  0
  4 31  1  0
 31 32  2  0
 32  1  1  0
  9  5  1  0
 30 10  1  0
 29 15  1  0
 27 22  1  0
M  END
>  <Compound_ID>  (506) 
CHEMBL205158

>  <Molecule Name>  (506) 
GW695874X

>  <Molecular Weight>  (506) 
427.51

>  <AlogP>  (506) 
3.91

>  <Smiles>  (506) 
c1ccc(-c2n[nH]cc2-c2ccnc(-c3ccc(OCCN4CCOCC4)cc3)c2)nc1

>  <Standard Type>  (506) 
Inhibition

>  <Standard Relation>  (506) 
'='

>  <Standard Units>  (506) 
%

>  <Standard Value>  (506) 
-0.16

>  <Assay ChEMBL ID>  (506) 
CHEMBL1962175

>  <Assay Description>  (506) 
GSK_PKIS: SYK mean inhibition at 1 uM [Nanosyn]

>  <BAO Format ID>  (506) 
BAO_0000357

>  <BAO Label>  (506) 
single protein format

>  <Assay Organism>  (506) 
None

>  <Target ChEMBL ID>  (506) 
CHEMBL2599

>  <Target Name>  (506) 
Tyrosine-protein kinase SYK

>  <Target Organism>  (506) 
Homo sapiens

>  <Target Type>  (506) 
SINGLE PROTEIN

>  <Document ChEMBL ID>  (506) 
CHEMBL1961873

>  <Source Description>  (506) 
GSK Published Kinase Inhibitor Set

>  <Document Journal>  (506) 
nan

>  <Document Year>  (506) 
nan

>  <Active>  (506) 
0.0

>  <bits>  (506) 
<rdkit.DataStructs.cDataStructs.ExplicitBitVect object at 0x00000193F33E97E0>

>  <Group>  (506) 
G2

$$$$

     RDKit          2D

 28 31  0  0  0  0  0  0  0  0999 V2000
    9.7500   -1.2990    0.0000 C   0  0  0  0  0  0  0  0  0  0  0  0
    8.2500   -1.2990    0.0000 O   0  0  0  0  0  0  0  0  0  0  0  0
    7.5000   -2.5981    0.0000 C   0  0  0  0  0  0  0  0  0  0  0  0
    8.2500   -3.8971    0.0000 C   0  0  0  0  0  0  0  0  0  0  0  0
    7.5000   -5.1962    0.0000 C   0  0  0  0  0  0  0  0  0  0  0  0
    6.0000   -5.1962    0.0000 C   0  0  0  0  0  0  0  0  0  0  0  0
    5.2500   -3.8971    0.0000 C   0  0  0  0  0  0  0  0  0  0  0  0
    3.7500   -3.8971    0.0000 C   0  0  0  0  0  0  0  0  0  0  0  0
    3.0000   -2.5981    0.0000 N   0  0  0  0  0  0  0  0  0  0  0  0
    1.5000   -2.5981    0.0000 N   0  0  0  0  0  0  0  0  0  0  0  0
    0.7500   -1.2990    0.0000 C   0  0  0  0  0  0  0  0  0  0  0  0
    1.5000    0.0000    0.0000 N   0  0  0  0  0  0  0  0  0  0  0  0
    0.7500    1.2990    0.0000 C   0  0  0  0  0  0  0  0  0  0  0  0
   -0.7500    1.2990    0.0000 N   0  0  0  0  0  0  0  0  0  0  0  0
   -1.5000    0.0000    0.0000 C   0  0  0  0  0  0  0  0  0  0  0  0
   -0.7500   -1.2990    0.0000 C   0  0  0  0  0  0  0  0  0  0  0  0
   -1.7537   -2.4138    0.0000 C   0  0  0  0  0  0  0  0  0  0  0  0
   -3.1240   -1.8037    0.0000 N   0  0  0  0  0  0  0  0  0  0  0  0
   -2.9672   -0.3119    0.0000 N   0  0  0  0  0  0  0  0  0  0  0  0
   -4.0819    0.6918    0.0000 C   0  0  0  0  0  0  0  0  0  0  0  0
   -3.7701    2.1590    0.0000 C   0  0  0  0  0  0  0  0  0  0  0  0
   -4.8848    3.1627    0.0000 C   0  0  0  0  0  0  0  0  0  0  0  0
   -6.3114    2.6992    0.0000 C   0  0  0  0  0  0  0  0  0  0  0  0
   -6.6232    1.2320    0.0000 C   0  0  0  0  0  0  0  0  0  0  0  0
   -8.0498    0.7685    0.0000 O   0  0  0  0  0  0  0  0  0  0  0  0
   -9.1645    1.7722    0.0000 C   0  0  0  0  0  0  0  0  0  0  0  0
   -5.5085    0.2283    0.0000 C   0  0  0  0  0  0  0  0  0  0  0  0
    6.0000   -2.5981    0.0000 C   0  0  0  0  0  0  0  0  0  0  0  0
  1  2  1  0
  2  3  1  0
  3  4  2  0
  4  5  1  0
  5  6  2  0
  6  7  1  0
  7  8  1  0
  8  9  2  0
  9 10  1  0
 10 11  1  0
 11 12  2  0
 12 13  1  0
 13 14  2  0
 14 15  1  0
 15 16  2  0
 16 17  1  0
 17 18  2  0
 18 19  1  0
 19 20  1  0
 20 21  2  0
 21 22  1  0
 22 23  2  0
 23 24  1  0
 24 25  1  0
 25 26  1  0
 24 27  2  0
  7 28  2  0
 28  3  1  0
 16 11  1  0
 27 20  1  0
 19 15  1  0
M  END
>  <Compound_ID>  (507) 
CHEMBL305477

>  <Molecule Name>  (507) 
GW829874X

>  <Molecular Weight>  (507) 
374.4

>  <AlogP>  (507) 
3.28

>  <Smiles>  (507) 
COc1cccc(/C=N/Nc2ncnc3c2cnn3-c2cccc(OC)c2)c1

>  <Standard Type>  (507) 
Inhibition

>  <Standard Relation>  (507) 
'='

>  <Standard Units>  (507) 
%

>  <Standard Value>  (507) 
2.69

>  <Assay ChEMBL ID>  (507) 
CHEMBL1962174

>  <Assay Description>  (507) 
GSK_PKIS: SYK mean inhibition at 0.1 uM [Nanosyn]

>  <BAO Format ID>  (507) 
BAO_0000357

>  <BAO Label>  (507) 
single protein format

>  <Assay Organism>  (507) 
None

>  <Target ChEMBL ID>  (507) 
CHEMBL2599

>  <Target Name>  (507) 
Tyrosine-protein kinase SYK

>  <Target Organism>  (507) 
Homo sapiens

>  <Target Type>  (507) 
SINGLE PROTEIN

>  <Document ChEMBL ID>  (507) 
CHEMBL1961873

>  <Source Description>  (507) 
GSK Published Kinase Inhibitor Set

>  <Document Journal>  (507) 
nan

>  <Document Year>  (507) 
nan

>  <Active>  (507) 
0.0

>  <bits>  (507) 
<rdkit.DataStructs.cDataStructs.ExplicitBitVect object at 0x00000193F33EA340>

>  <Group>  (507) 
G2

$$$$

     RDKit          2D

 25 28  0  0  0  0  0  0  0  0999 V2000
    4.6740   -4.8322    0.0000 O   0  0  0  0  0  0  0  0  0  0  0  0
    3.3037   -4.2221    0.0000 C   0  0  0  0  0  0  0  0  0  0  0  0
    2.9918   -2.7549    0.0000 N   0  0  0  0  0  0  0  0  0  0  0  0
    1.5000   -2.5981    0.0000 N   0  0  0  0  0  0  0  0  0  0  0  0
    0.7500   -1.2990    0.0000 C   0  0  0  0  0  0  0  0  0  0  0  0
    1.5000    0.0000    0.0000 C   0  0  0  0  0  0  0  0  0  0  0  0
    0.7500    1.2990    0.0000 C   0  0  0  0  0  0  0  0  0  0  0  0
   -0.7500    1.2990    0.0000 C   0  0  0  0  0  0  0  0  0  0  0  0
   -1.5000    0.0000    0.0000 C   0  0  0  0  0  0  0  0  0  0  0  0
   -0.7500   -1.2990    0.0000 C   0  0  0  0  0  0  0  0  0  0  0  0
    0.8899   -3.9684    0.0000 C   0  0  0  0  0  0  0  0  0  0  0  0
   -0.5773   -4.2803    0.0000 O   0  0  0  0  0  0  0  0  0  0  0  0
    2.0046   -4.9721    0.0000 C   0  0  0  0  0  0  0  0  0  0  0  0
    1.8478   -6.4639    0.0000 C   0  0  0  0  0  0  0  0  0  0  0  0
    3.0613   -7.3456    0.0000 C   0  0  0  0  0  0  0  0  0  0  0  0
    4.4879   -6.8820    0.0000 C   0  0  0  0  0  0  0  0  0  0  0  0
    5.3696   -8.0956    0.0000 C   0  0  0  0  0  0  0  0  0  0  0  0
    4.4879   -9.3091    0.0000 C   0  0  0  0  0  0  0  0  0  0  0  0
    4.9515  -10.7357    0.0000 C   0  0  0  0  0  0  0  0  0  0  0  0
    3.9478  -11.8504    0.0000 C   0  0  0  0  0  0  0  0  0  0  0  0
    4.4113  -13.2770    0.0000 C   0  0  0  0  0  0  0  0  0  0  0  0
    5.8785  -13.5888    0.0000 C   0  0  0  0  0  0  0  0  0  0  0  0
    6.8822  -12.4741    0.0000 C   0  0  0  0  0  0  0  0  0  0  0  0
    6.4187  -11.0475    0.0000 C   0  0  0  0  0  0  0  0  0  0  0  0
    3.0613   -8.8456    0.0000 O   0  0  0  0  0  0  0  0  0  0  0  0
  1  2  2  0
  2  3  1  0
  3  4  1  0
  4  5  1  0
  5  6  2  0
  6  7  1  0
  7  8  2  0
  8  9  1  0
  9 10  2  0
  4 11  1  0
 11 12  2  0
 11 13  1  0
 13 14  2  0
 14 15  1  0
 15 16  2  0
 16 17  1  0
 17 18  2  0
 18 19  1  0
 19 20  2  0
 20 21  1  0
 21 22  2  0
 22 23  1  0
 23 24  2  0
 18 25  1  0
 13  2  1  0
 25 15  1  0
 10  5  1  0
 24 19  1  0
M  END
>  <Compound_ID>  (508) 
CHEMBL3115322

>  <Molecule Name>  (508) 
nan

>  <Molecular Weight>  (508) 
330.34

>  <AlogP>  (508) 
3.41

>  <Smiles>  (508) 
O=C1NN(c2ccccc2)C(=O)/C1=C/c1ccc(-c2ccccc2)o1

>  <Standard Type>  (508) 
Inhibition

>  <Standard Relation>  (508) 
'='

>  <Standard Units>  (508) 
%

>  <Standard Value>  (508) 
17.0

>  <Assay ChEMBL ID>  (508) 
CHEMBL3119789

>  <Assay Description>  (508) 
Inhibition of SYK (unknown origin) at 20 uM by radioactive ATP method

>  <BAO Format ID>  (508) 
BAO_0000357

>  <BAO Label>  (508) 
single protein format

>  <Assay Organism>  (508) 
Homo sapiens

>  <Target ChEMBL ID>  (508) 
CHEMBL2599

>  <Target Name>  (508) 
Tyrosine-protein kinase SYK

>  <Target Organism>  (508) 
Homo sapiens

>  <Target Type>  (508) 
SINGLE PROTEIN

>  <Document ChEMBL ID>  (508) 
CHEMBL3112544

>  <Source Description>  (508) 
Scientific Literature

>  <Document Journal>  (508) 
Bioorg Med Chem Lett

>  <Document Year>  (508) 
2013.0

>  <Active>  (508) 
0.0

>  <bits>  (508) 
<rdkit.DataStructs.cDataStructs.ExplicitBitVect object at 0x00000193F33EB8B0>

>  <Group>  (508) 
G2

$$$$

     RDKit          2D

 25 27  0  0  0  0  0  0  0  0999 V2000
    1.6910   -7.9557    0.0000 C   0  0  0  0  0  0  0  0  0  0  0  0
    1.8478   -6.4639    0.0000 C   0  0  0  0  0  0  0  0  0  0  0  0
    2.0046   -4.9721    0.0000 N   0  0  0  0  0  0  0  0  0  0  0  0
    3.3037   -4.2221    0.0000 C   0  0  0  0  0  0  0  0  0  0  0  0
    4.6740   -4.8322    0.0000 C   0  0  0  0  0  0  0  0  0  0  0  0
    6.0443   -5.4423    0.0000 C   0  0  0  0  0  0  0  0  0  0  0  0
    7.4146   -6.0524    0.0000 C   0  0  0  0  0  0  0  0  0  0  0  0
    8.6281   -5.1707    0.0000 C   0  0  0  0  0  0  0  0  0  0  0  0
    9.9984   -5.7808    0.0000 O   0  0  0  0  0  0  0  0  0  0  0  0
    2.9918   -2.7549    0.0000 N   0  0  0  0  0  0  0  0  0  0  0  0
    1.5000   -2.5981    0.0000 C   0  0  0  0  0  0  0  0  0  0  0  0
    0.7500   -1.2990    0.0000 C   0  0  0  0  0  0  0  0  0  0  0  0
    1.5000    0.0000    0.0000 C   0  0  0  0  0  0  0  0  0  0  0  0
    0.7500    1.2990    0.0000 C   0  0  0  0  0  0  0  0  0  0  0  0
   -0.7500    1.2990    0.0000 C   0  0  0  0  0  0  0  0  0  0  0  0
   -1.5000    2.5981    0.0000 F   0  0  0  0  0  0  0  0  0  0  0  0
   -1.5000    0.0000    0.0000 C   0  0  0  0  0  0  0  0  0  0  0  0
   -0.7500   -1.2990    0.0000 C   0  0  0  0  0  0  0  0  0  0  0  0
    0.8899   -3.9684    0.0000 C   0  0  0  0  0  0  0  0  0  0  0  0
   -0.5773   -4.2803    0.0000 C   0  0  0  0  0  0  0  0  0  0  0  0
   -1.5810   -3.1655    0.0000 C   0  0  0  0  0  0  0  0  0  0  0  0
   -3.0482   -3.4774    0.0000 C   0  0  0  0  0  0  0  0  0  0  0  0
   -3.5118   -4.9040    0.0000 N   0  0  0  0  0  0  0  0  0  0  0  0
   -2.5081   -6.0187    0.0000 C   0  0  0  0  0  0  0  0  0  0  0  0
   -1.0409   -5.7068    0.0000 C   0  0  0  0  0  0  0  0  0  0  0  0
  1  2  3  0
  2  3  1  0
  3  4  1  0
  4  5  1  0
  5  6  3  0
  6  7  1  0
  7  8  1  0
  8  9  1  0
  4 10  2  0
 10 11  1  0
 11 12  1  0
 12 13  2  0
 13 14  1  0
 14 15  2  0
 15 16  1  0
 15 17  1  0
 17 18  2  0
 11 19  2  0
 19 20  1  0
 20 21  2  0
 21 22  1  0
 22 23  2  0
 23 24  1  0
 24 25  2  0
 19  3  1  0
 25 20  1  0
 18 12  1  0
M  END
>  <Compound_ID>  (509) 
CHEMBL576620

>  <Molecule Name>  (509) 
nan

>  <Molecular Weight>  (509) 
331.35

>  <AlogP>  (509) 
2.92

>  <Smiles>  (509) 
C#Cn1c(C#CCCO)nc(-c2ccc(F)cc2)c1-c1ccncc1

>  <Standard Type>  (509) 
Inhibition

>  <Standard Relation>  (509) 
'='

>  <Standard Units>  (509) 
%

>  <Standard Value>  (509) 
3.0

>  <Assay ChEMBL ID>  (509) 
CHEMBL1044547

>  <Assay Description>  (509) 
Inhibition of human SYK at 20 uM by FRET assay

>  <BAO Format ID>  (509) 
BAO_0000357

>  <BAO Label>  (509) 
single protein format

>  <Assay Organism>  (509) 
Homo sapiens

>  <Target ChEMBL ID>  (509) 
CHEMBL2599

>  <Target Name>  (509) 
Tyrosine-protein kinase SYK

>  <Target Organism>  (509) 
Homo sapiens

>  <Target Type>  (509) 
SINGLE PROTEIN

>  <Document ChEMBL ID>  (509) 
CHEMBL1156108

>  <Source Description>  (509) 
Scientific Literature

>  <Document Journal>  (509) 
Bioorg Med Chem Lett

>  <Document Year>  (509) 
2009.0

>  <Active>  (509) 
0.0

>  <bits>  (509) 
<rdkit.DataStructs.cDataStructs.ExplicitBitVect object at 0x00000193F33EBAE0>

>  <Group>  (509) 
G2

$$$$

     RDKit          2D

 23 26  0  0  0  0  0  0  0  0999 V2000
   -6.4937   -2.7256    0.0000 O   0  0  0  0  0  0  0  0  0  0  0  0
   -5.0672   -3.1891    0.0000 C   0  0  0  0  0  0  0  0  0  0  0  0
   -4.6036   -4.6157    0.0000 N   0  0  0  0  0  0  0  0  0  0  0  0
   -3.1036   -4.6157    0.0000 C   0  0  0  0  0  0  0  0  0  0  0  0
   -2.2220   -5.8293    0.0000 O   0  0  0  0  0  0  0  0  0  0  0  0
   -2.6401   -3.1891    0.0000 C   0  0  0  0  0  0  0  0  0  0  0  0
   -1.2135   -2.7256    0.0000 N   0  0  0  0  0  0  0  0  0  0  0  0
   -0.0000   -3.6073    0.0000 C   0  0  0  0  0  0  0  0  0  0  0  0
    1.2135   -2.7256    0.0000 C   0  0  0  0  0  0  0  0  0  0  0  0
    0.7500   -1.2990    0.0000 C   0  0  0  0  0  0  0  0  0  0  0  0
    1.5000    0.0000    0.0000 C   0  0  0  0  0  0  0  0  0  0  0  0
    0.7500    1.2990    0.0000 C   0  0  0  0  0  0  0  0  0  0  0  0
   -0.7500    1.2990    0.0000 C   0  0  0  0  0  0  0  0  0  0  0  0
   -1.5000    0.0000    0.0000 C   0  0  0  0  0  0  0  0  0  0  0  0
   -0.7500   -1.2990    0.0000 C   0  0  0  0  0  0  0  0  0  0  0  0
   -3.8536   -2.3075    0.0000 C   0  0  0  0  0  0  0  0  0  0  0  0
   -3.8536   -0.8075    0.0000 C   0  0  0  0  0  0  0  0  0  0  0  0
   -2.5546   -0.0575    0.0000 C   0  0  0  0  0  0  0  0  0  0  0  0
   -2.5546    1.4425    0.0000 C   0  0  0  0  0  0  0  0  0  0  0  0
   -3.8536    2.1925    0.0000 C   0  0  0  0  0  0  0  0  0  0  0  0
   -3.8536    3.6925    0.0000 Cl  0  0  0  0  0  0  0  0  0  0  0  0
   -5.1527    1.4425    0.0000 C   0  0  0  0  0  0  0  0  0  0  0  0
   -5.1527   -0.0575    0.0000 C   0  0  0  0  0  0  0  0  0  0  0  0
  1  2  2  0
  2  3  1  0
  3  4  1  0
  4  5  2  0
  4  6  1  0
  6  7  1  0
  7  8  1  0
  8  9  1  0
  9 10  1  0
 10 11  2  0
 11 12  1  0
 12 13  2  0
 13 14  1  0
 14 15  2  0
  6 16  2  0
 16 17  1  0
 17 18  2  0
 18 19  1  0
 19 20  2  0
 20 21  1  0
 20 22  1  0
 22 23  2  0
 16  2  1  0
 23 17  1  0
 15  7  1  0
 15 10  1  0
M  END
>  <Compound_ID>  (510) 
CHEMBL156524

>  <Molecule Name>  (510) 
nan

>  <Molecular Weight>  (510) 
324.77

>  <AlogP>  (510) 
2.77

>  <Smiles>  (510) 
O=C1NC(=O)C(N2CCc3ccccc32)=C1c1ccc(Cl)cc1

>  <Standard Type>  (510) 
Inhibition

>  <Standard Relation>  (510) 
'='

>  <Standard Units>  (510) 
%

>  <Standard Value>  (510) 
-1.26

>  <Assay ChEMBL ID>  (510) 
CHEMBL1962175

>  <Assay Description>  (510) 
GSK_PKIS: SYK mean inhibition at 1 uM [Nanosyn]

>  <BAO Format ID>  (510) 
BAO_0000357

>  <BAO Label>  (510) 
single protein format

>  <Assay Organism>  (510) 
None

>  <Target ChEMBL ID>  (510) 
CHEMBL2599

>  <Target Name>  (510) 
Tyrosine-protein kinase SYK

>  <Target Organism>  (510) 
Homo sapiens

>  <Target Type>  (510) 
SINGLE PROTEIN

>  <Document ChEMBL ID>  (510) 
CHEMBL1961873

>  <Source Description>  (510) 
GSK Published Kinase Inhibitor Set

>  <Document Journal>  (510) 
nan

>  <Document Year>  (510) 
nan

>  <Active>  (510) 
0.0

>  <bits>  (510) 
<rdkit.DataStructs.cDataStructs.ExplicitBitVect object at 0x00000193F33EA8F0>

>  <Group>  (510) 
G2

$$$$

     RDKit          2D

 32 35  0  0  0  0  0  0  0  0999 V2000
    5.2500   -1.2990    0.0000 C   0  0  0  0  0  0  0  0  0  0  0  0
    3.7500   -1.2990    0.0000 N   0  0  0  0  0  0  0  0  0  0  0  0
    3.0000    0.0000    0.0000 C   0  0  0  0  0  0  0  0  0  0  0  0
    3.7500    1.2990    0.0000 O   0  0  0  0  0  0  0  0  0  0  0  0
    1.5000    0.0000    0.0000 C   0  0  0  0  0  0  0  0  0  0  0  0
    0.7500   -1.2990    0.0000 C   0  0  0  0  0  0  0  0  0  0  0  0
   -0.7500   -1.2990    0.0000 C   0  0  0  0  0  0  0  0  0  0  0  0
   -1.5000   -2.5981    0.0000 C   0  0  0  0  0  0  0  0  0  0  0  0
   -3.0000   -2.5981    0.0000 C   0  0  0  0  0  0  0  0  0  0  0  0
   -3.7500   -3.8971    0.0000 C   0  0  0  0  0  0  0  0  0  0  0  0
   -3.0000   -5.1962    0.0000 C   0  0  0  0  0  0  0  0  0  0  0  0
   -3.7500   -6.4952    0.0000 F   0  0  0  0  0  0  0  0  0  0  0  0
   -1.5000   -5.1962    0.0000 C   0  0  0  0  0  0  0  0  0  0  0  0
   -0.7500   -3.8971    0.0000 C   0  0  0  0  0  0  0  0  0  0  0  0
   -1.5000    0.0000    0.0000 C   0  0  0  0  0  0  0  0  0  0  0  0
   -0.7500    1.2990    0.0000 C   0  0  0  0  0  0  0  0  0  0  0  0
   -1.5000    2.5981    0.0000 C   0  0  0  0  0  0  0  0  0  0  0  0
   -0.7500    3.8971    0.0000 C   0  0  0  0  0  0  0  0  0  0  0  0
   -1.5000    5.1962    0.0000 C   0  0  0  0  0  0  0  0  0  0  0  0
   -3.0000    5.1962    0.0000 C   0  0  0  0  0  0  0  0  0  0  0  0
   -3.7500    6.4952    0.0000 S   0  0  0  0  0  0  0  0  0  0  0  0
   -2.4510    7.2452    0.0000 O   0  0  0  0  0  0  0  0  0  0  0  0
   -5.0490    5.7452    0.0000 O   0  0  0  0  0  0  0  0  0  0  0  0
   -4.5000    7.7942    0.0000 N   0  0  0  0  0  0  0  0  0  0  0  0
   -5.9918    7.9510    0.0000 C   0  0  0  0  0  0  0  0  0  0  0  0
   -6.3037    9.4182    0.0000 C   0  0  0  0  0  0  0  0  0  0  0  0
   -5.0046   10.1682    0.0000 C   0  0  0  0  0  0  0  0  0  0  0  0
   -3.8899    9.1645    0.0000 C   0  0  0  0  0  0  0  0  0  0  0  0
   -3.7500    3.8971    0.0000 C   0  0  0  0  0  0  0  0  0  0  0  0
   -3.0000    2.5981    0.0000 C   0  0  0  0  0  0  0  0  0  0  0  0
    0.7500    1.2990    0.0000 C   0  0  0  0  0  0  0  0  0  0  0  0
    1.5000    2.5981    0.0000 N   0  0  0  0  0  0  0  0  0  0  0  0
  1  2  1  0
  2  3  1  0
  3  4  2  0
  3  5  1  0
  5  6  2  0
  6  7  1  0
  7  8  1  0
  8  9  2  0
  9 10  1  0
 10 11  2  0
 11 12  1  0
 11 13  1  0
 13 14  2  0
  7 15  2  0
 15 16  1  0
 16 17  1  0
 17 18  2  0
 18 19  1  0
 19 20  2  0
 20 21  1  0
 21 22  2  0
 21 23  2  0
 21 24  1  0
 24 25  1  0
 25 26  1  0
 26 27  1  0
 27 28  1  0
 20 29  1  0
 29 30  2  0
 16 31  2  0
 31 32  1  0
 31  5  1  0
 14  8  1  0
 30 17  1  0
 28 24  1  0
M  END
>  <Compound_ID>  (511) 
CHEMBL230592

>  <Molecule Name>  (511) 
GSK-635416A

>  <Molecular Weight>  (511) 
453.54

>  <AlogP>  (511) 
3.89

>  <Smiles>  (511) 
CNC(=O)c1cc(-c2ccc(F)cc2)cc(-c2ccc(S(=O)(=O)N3CCCC3)cc2)c1N

>  <Standard Type>  (511) 
Inhibition

>  <Standard Relation>  (511) 
'='

>  <Standard Units>  (511) 
%

>  <Standard Value>  (511) 
0.73

>  <Assay ChEMBL ID>  (511) 
CHEMBL1962175

>  <Assay Description>  (511) 
GSK_PKIS: SYK mean inhibition at 1 uM [Nanosyn]

>  <BAO Format ID>  (511) 
BAO_0000357

>  <BAO Label>  (511) 
single protein format

>  <Assay Organism>  (511) 
None

>  <Target ChEMBL ID>  (511) 
CHEMBL2599

>  <Target Name>  (511) 
Tyrosine-protein kinase SYK

>  <Target Organism>  (511) 
Homo sapiens

>  <Target Type>  (511) 
SINGLE PROTEIN

>  <Document ChEMBL ID>  (511) 
CHEMBL1961873

>  <Source Description>  (511) 
GSK Published Kinase Inhibitor Set

>  <Document Journal>  (511) 
nan

>  <Document Year>  (511) 
nan

>  <Active>  (511) 
0.0

>  <bits>  (511) 
<rdkit.DataStructs.cDataStructs.ExplicitBitVect object at 0x00000193F33E8B30>

>  <Group>  (511) 
G2

$$$$

     RDKit          2D

 37 40  0  0  0  0  0  0  0  0999 V2000
    3.7500   -1.2990    0.0000 C   0  0  0  0  0  0  0  0  0  0  0  0
    3.0000    0.0000    0.0000 C   0  0  0  0  0  0  0  0  0  0  0  0
    1.5000    0.0000    0.0000 N   0  0  0  0  0  0  0  0  0  0  0  0
    0.7500   -1.2990    0.0000 C   0  0  0  0  0  0  0  0  0  0  0  0
   -0.7500   -1.2990    0.0000 C   0  0  0  0  0  0  0  0  0  0  0  0
   -1.5000    0.0000    0.0000 N   0  0  0  0  0  0  0  0  0  0  0  0
   -3.0000    0.0000    0.0000 C   0  0  0  0  0  0  0  0  0  0  0  0
   -3.7500    1.2990    0.0000 C   0  0  0  0  0  0  0  0  0  0  0  0
   -3.0000    2.5981    0.0000 C   0  0  0  0  0  0  0  0  0  0  0  0
   -3.7500    3.8971    0.0000 C   0  0  0  0  0  0  0  0  0  0  0  0
   -5.2500    3.8971    0.0000 C   0  0  0  0  0  0  0  0  0  0  0  0
   -6.0000    5.1962    0.0000 N   0  0  0  0  0  0  0  0  0  0  0  0
   -5.2500    6.4952    0.0000 C   0  0  0  0  0  0  0  0  0  0  0  0
   -3.7500    6.4952    0.0000 O   0  0  0  0  0  0  0  0  0  0  0  0
   -6.0000    7.7942    0.0000 C   0  0  0  0  0  0  0  0  0  0  0  0
   -5.2500    9.0933    0.0000 C   0  0  0  0  0  0  0  0  0  0  0  0
   -6.0000   10.3923    0.0000 C   0  0  0  0  0  0  0  0  0  0  0  0
   -7.5000   10.3923    0.0000 C   0  0  0  0  0  0  0  0  0  0  0  0
   -8.2500   11.6913    0.0000 C   0  0  0  0  0  0  0  0  0  0  0  0
   -8.2500    9.0933    0.0000 C   0  0  0  0  0  0  0  0  0  0  0  0
   -9.7500    9.0933    0.0000 C   0  0  0  0  0  0  0  0  0  0  0  0
  -11.2500    9.0933    0.0000 C   0  0  0  0  0  0  0  0  0  0  0  0
  -12.7500    9.0933    0.0000 C   0  0  0  0  0  0  0  0  0  0  0  0
  -13.5000   10.3923    0.0000 C   0  0  0  0  0  0  0  0  0  0  0  0
  -15.0000   10.3923    0.0000 C   0  0  0  0  0  0  0  0  0  0  0  0
  -15.7500    9.0933    0.0000 C   0  0  0  0  0  0  0  0  0  0  0  0
  -15.0000    7.7942    0.0000 N   0  0  0  0  0  0  0  0  0  0  0  0
  -13.5000    7.7942    0.0000 C   0  0  0  0  0  0  0  0  0  0  0  0
   -7.5000    7.7942    0.0000 C   0  0  0  0  0  0  0  0  0  0  0  0
   -6.0000    2.5981    0.0000 C   0  0  0  0  0  0  0  0  0  0  0  0
   -5.2500    1.2990    0.0000 C   0  0  0  0  0  0  0  0  0  0  0  0
   -6.0000    0.0000    0.0000 C   0  0  0  0  0  0  0  0  0  0  0  0
   -6.7500   -1.2990    0.0000 F   0  0  0  0  0  0  0  0  0  0  0  0
   -7.2990    0.7500    0.0000 F   0  0  0  0  0  0  0  0  0  0  0  0
   -4.7010   -0.7500    0.0000 F   0  0  0  0  0  0  0  0  0  0  0  0
   -0.7500    1.2990    0.0000 C   0  0  0  0  0  0  0  0  0  0  0  0
    0.7500    1.2990    0.0000 C   0  0  0  0  0  0  0  0  0  0  0  0
  1  2  1  0
  2  3  1  0
  3  4  1  0
  4  5  1  0
  5  6  1  0
  6  7  1  0
  7  8  1  0
  8  9  2  0
  9 10  1  0
 10 11  2  0
 11 12  1  0
 12 13  1  0
 13 14  2  0
 13 15  1  0
 15 16  2  0
 16 17  1  0
 17 18  2  0
 18 19  1  0
 18 20  1  0
 20 21  1  0
 21 22  3  0
 22 23  1  0
 23 24  2  0
 24 25  1  0
 25 26  2  0
 26 27  1  0
 27 28  2  0
 20 29  2  0
 11 30  1  0
 30 31  2  0
 31 32  1  0
 32 33  1  0
 32 34  1  0
 32 35  1  0
  6 36  1  0
 36 37  1  0
 37  3  1  0
 31  8  1  0
 29 15  1  0
 28 23  1  0
M  END
>  <Compound_ID>  (512) 
CHEMBL1171523

>  <Molecule Name>  (512) 
nan

>  <Molecular Weight>  (512) 
506.57

>  <AlogP>  (512) 
5.20

>  <Smiles>  (512) 
CCN1CCN(Cc2ccc(NC(=O)c3ccc(C)c(C#Cc4cccnc4)c3)cc2C(F)(F)F)CC1

>  <Standard Type>  (512) 
Inhibition

>  <Standard Relation>  (512) 
'='

>  <Standard Units>  (512) 
%

>  <Standard Value>  (512) 
13.0

>  <Assay ChEMBL ID>  (512) 
CHEMBL1175028

>  <Assay Description>  (512) 
Inhibition of SYK at 10 uM

>  <BAO Format ID>  (512) 
BAO_0000357

>  <BAO Label>  (512) 
single protein format

>  <Assay Organism>  (512) 
None

>  <Target ChEMBL ID>  (512) 
CHEMBL2599

>  <Target Name>  (512) 
Tyrosine-protein kinase SYK

>  <Target Organism>  (512) 
Homo sapiens

>  <Target Type>  (512) 
SINGLE PROTEIN

>  <Document ChEMBL ID>  (512) 
CHEMBL1177794

>  <Source Description>  (512) 
Scientific Literature

>  <Document Journal>  (512) 
Bioorg Med Chem Lett

>  <Document Year>  (512) 
2010.0

>  <Active>  (512) 
0.0

>  <bits>  (512) 
<rdkit.DataStructs.cDataStructs.ExplicitBitVect object at 0x00000193F33EB4C0>

>  <Group>  (512) 
G2

$$$$

     RDKit          2D

 36 39  0  0  0  0  0  0  0  0999 V2000
    3.0000    0.0000    0.0000 C   0  0  0  0  0  0  0  0  0  0  0  0
    1.5000    0.0000    0.0000 C   0  0  0  0  0  0  0  0  0  0  0  0
    0.7500   -1.2990    0.0000 C   0  0  0  0  0  0  0  0  0  0  0  0
   -0.7500   -1.2990    0.0000 C   0  0  0  0  0  0  0  0  0  0  0  0
   -1.5000    0.0000    0.0000 C   0  0  0  0  0  0  0  0  0  0  0  0
   -3.0000    0.0000    0.0000 C   0  0  0  0  0  0  0  0  0  0  0  0
   -3.7500   -1.2990    0.0000 O   0  0  0  0  0  0  0  0  0  0  0  0
   -3.7500    1.2990    0.0000 N   0  0  0  0  0  0  0  0  0  0  0  0
   -5.2500    1.2990    0.0000 C   0  0  0  0  0  0  0  0  0  0  0  0
   -6.0000    2.5981    0.0000 C   0  0  0  0  0  0  0  0  0  0  0  0
   -7.5000    2.5981    0.0000 C   0  0  0  0  0  0  0  0  0  0  0  0
   -8.2500    1.2990    0.0000 C   0  0  0  0  0  0  0  0  0  0  0  0
   -9.7500    1.2990    0.0000 O   0  0  0  0  0  0  0  0  0  0  0  0
  -10.5000    2.5981    0.0000 C   0  0  0  0  0  0  0  0  0  0  0  0
  -11.2500    3.8971    0.0000 F   0  0  0  0  0  0  0  0  0  0  0  0
  -11.7990    1.8481    0.0000 F   0  0  0  0  0  0  0  0  0  0  0  0
   -9.2010    3.3481    0.0000 F   0  0  0  0  0  0  0  0  0  0  0  0
   -7.5000    0.0000    0.0000 C   0  0  0  0  0  0  0  0  0  0  0  0
   -6.0000    0.0000    0.0000 C   0  0  0  0  0  0  0  0  0  0  0  0
   -0.7500    1.2990    0.0000 C   0  0  0  0  0  0  0  0  0  0  0  0
    0.7500    1.2990    0.0000 C   0  0  0  0  0  0  0  0  0  0  0  0
    1.5000    2.5981    0.0000 C   0  0  0  0  0  0  0  0  0  0  0  0
    2.2500    3.8971    0.0000 C   0  0  0  0  0  0  0  0  0  0  0  0
    3.0000    5.1962    0.0000 C   0  0  0  0  0  0  0  0  0  0  0  0
    4.5000    5.1962    0.0000 C   0  0  0  0  0  0  0  0  0  0  0  0
    5.2500    6.4952    0.0000 C   0  0  0  0  0  0  0  0  0  0  0  0
    6.7500    6.4952    0.0000 C   0  0  0  0  0  0  0  0  0  0  0  0
    7.6317    7.7087    0.0000 C   0  0  0  0  0  0  0  0  0  0  0  0
    9.0583    7.2452    0.0000 N   0  0  0  0  0  0  0  0  0  0  0  0
    9.0583    5.7452    0.0000 N   0  0  0  0  0  0  0  0  0  0  0  0
   10.2718    4.8635    0.0000 C   0  0  0  0  0  0  0  0  0  0  0  0
    7.6317    5.2817    0.0000 C   0  0  0  0  0  0  0  0  0  0  0  0
    4.5000    7.7942    0.0000 C   0  0  0  0  0  0  0  0  0  0  0  0
    3.0000    7.7942    0.0000 N   0  0  0  0  0  0  0  0  0  0  0  0
    2.2500    6.4952    0.0000 C   0  0  0  0  0  0  0  0  0  0  0  0
    0.7500    6.4952    0.0000 N   0  0  0  0  0  0  0  0  0  0  0  0
  1  2  1  0
  2  3  2  0
  3  4  1  0
  4  5  2  0
  5  6  1  0
  6  7  2  0
  6  8  1  0
  8  9  1  0
  9 10  2  0
 10 11  1  0
 11 12  2  0
 12 13  1  0
 13 14  1  0
 14 15  1  0
 14 16  1  0
 14 17  1  0
 12 18  1  0
 18 19  2  0
  5 20  1  0
 20 21  2  0
 21 22  1  0
 22 23  3  0
 23 24  1  0
 24 25  2  0
 25 26  1  0
 26 27  1  0
 27 28  1  0
 28 29  2  0
 29 30  1  0
 30 31  1  0
 30 32  1  0
 26 33  2  0
 33 34  1  0
 34 35  2  0
 35 36  1  0
 21  2  1  0
 35 24  1  0
 19  9  1  0
 32 27  2  0
M  END
>  <Compound_ID>  (513) 
CHEMBL4850154

>  <Molecule Name>  (513) 
nan

>  <Molecular Weight>  (513) 
491.47

>  <AlogP>  (513) 
4.92

>  <Smiles>  (513) 
Cc1ccc(C(=O)Nc2ccc(OC(F)(F)F)cc2)cc1C#Cc1cc(-c2cnn(C)c2)cnc1N

>  <Standard Type>  (513) 
Inhibition

>  <Standard Relation>  (513) 
'='

>  <Standard Units>  (513) 
%

>  <Standard Value>  (513) 
9.0

>  <Assay ChEMBL ID>  (513) 
CHEMBL4839592

>  <Assay Description>  (513) 
Inhibition of human full length recombinant Syk at 500 nM by radiometric scintillation counting analysis relative to control

>  <BAO Format ID>  (513) 
BAO_0000357

>  <BAO Label>  (513) 
single protein format

>  <Assay Organism>  (513) 
Homo sapiens

>  <Target ChEMBL ID>  (513) 
CHEMBL2599

>  <Target Name>  (513) 
Tyrosine-protein kinase SYK

>  <Target Organism>  (513) 
Homo sapiens

>  <Target Type>  (513) 
SINGLE PROTEIN

>  <Document ChEMBL ID>  (513) 
CHEMBL4837249

>  <Source Description>  (513) 
Scientific Literature

>  <Document Journal>  (513) 
J Med Chem

>  <Document Year>  (513) 
2021.0

>  <Active>  (513) 
0.0

>  <bits>  (513) 
<rdkit.DataStructs.cDataStructs.ExplicitBitVect object at 0x00000193F33E86D0>

>  <Group>  (513) 
G2

$$$$

     RDKit          2D

 29 31  0  0  0  0  0  0  0  0999 V2000
    6.0000    2.5981    0.0000 C   0  0  0  0  0  0  0  0  0  0  0  0
    6.7500    1.2990    0.0000 N   0  0  0  0  0  0  0  0  0  0  0  0
    6.0000   -0.0000    0.0000 S   0  0  0  0  0  0  0  0  0  0  0  0
    7.2990   -0.7500    0.0000 O   0  0  0  0  0  0  0  0  0  0  0  0
    4.7010    0.7500    0.0000 O   0  0  0  0  0  0  0  0  0  0  0  0
    5.2500   -1.2990    0.0000 C   0  0  0  0  0  0  0  0  0  0  0  0
    6.0000   -2.5981    0.0000 C   0  0  0  0  0  0  0  0  0  0  0  0
    5.2500   -3.8971    0.0000 C   0  0  0  0  0  0  0  0  0  0  0  0
    3.7500   -3.8971    0.0000 C   0  0  0  0  0  0  0  0  0  0  0  0
    3.0000   -5.1962    0.0000 N   0  0  0  0  0  0  0  0  0  0  0  0
    3.7500   -6.4952    0.0000 C   0  0  0  0  0  0  0  0  0  0  0  0
    1.5000   -5.1962    0.0000 C   0  0  0  0  0  0  0  0  0  0  0  0
    3.0000   -2.5981    0.0000 C   0  0  0  0  0  0  0  0  0  0  0  0
    1.5000   -2.5981    0.0000 N   0  0  0  0  0  0  0  0  0  0  0  0
    0.7500   -1.2990    0.0000 C   0  0  0  0  0  0  0  0  0  0  0  0
    1.5000    0.0000    0.0000 N   0  0  0  0  0  0  0  0  0  0  0  0
    0.7500    1.2990    0.0000 C   0  0  0  0  0  0  0  0  0  0  0  0
   -0.7500    1.2990    0.0000 N   0  0  0  0  0  0  0  0  0  0  0  0
   -1.5000    0.0000    0.0000 C   0  0  0  0  0  0  0  0  0  0  0  0
   -3.0000    0.0000    0.0000 C   0  0  0  0  0  0  0  0  0  0  0  0
   -3.7500   -1.2990    0.0000 C   0  0  0  0  0  0  0  0  0  0  0  0
   -5.2500   -1.2990    0.0000 O   0  0  0  0  0  0  0  0  0  0  0  0
   -6.0000    0.0000    0.0000 C   0  0  0  0  0  0  0  0  0  0  0  0
   -3.0000   -2.5981    0.0000 C   0  0  0  0  0  0  0  0  0  0  0  0
   -3.7500   -3.8971    0.0000 O   0  0  0  0  0  0  0  0  0  0  0  0
   -5.2500   -3.8971    0.0000 C   0  0  0  0  0  0  0  0  0  0  0  0
   -1.5000   -2.5981    0.0000 C   0  0  0  0  0  0  0  0  0  0  0  0
   -0.7500   -1.2990    0.0000 C   0  0  0  0  0  0  0  0  0  0  0  0
    3.7500   -1.2990    0.0000 C   0  0  0  0  0  0  0  0  0  0  0  0
  1  2  1  0
  2  3  1  0
  3  4  2  0
  3  5  2  0
  3  6  1  0
  6  7  2  0
  7  8  1  0
  8  9  2  0
  9 10  1  0
 10 11  1  0
 10 12  1  0
  9 13  1  0
 13 14  1  0
 14 15  1  0
 15 16  2  0
 16 17  1  0
 17 18  2  0
 18 19  1  0
 19 20  2  0
 20 21  1  0
 21 22  1  0
 22 23  1  0
 21 24  2  0
 24 25  1  0
 25 26  1  0
 24 27  1  0
 27 28  2  0
 13 29  2  0
 29  6  1  0
 28 15  1  0
 28 19  1  0
M  END
>  <Compound_ID>  (514) 
CHEMBL3815093

>  <Molecule Name>  (514) 
nan

>  <Molecular Weight>  (514) 
417.49

>  <AlogP>  (514) 
2.36

>  <Smiles>  (514) 
CNS(=O)(=O)c1ccc(N(C)C)c(Nc2ncnc3cc(OC)c(OC)cc23)c1

>  <Standard Type>  (514) 
Inhibition

>  <Standard Relation>  (514) 
'='

>  <Standard Units>  (514) 
%

>  <Standard Value>  (514) 
-5.0

>  <Assay ChEMBL ID>  (514) 
CHEMBL3816856

>  <Assay Description>  (514) 
Inhibition of human SYK at 1 uM using poly[Glu:Tyr] (4:1) as substrate

>  <BAO Format ID>  (514) 
BAO_0000357

>  <BAO Label>  (514) 
single protein format

>  <Assay Organism>  (514) 
Homo sapiens

>  <Target ChEMBL ID>  (514) 
CHEMBL2599

>  <Target Name>  (514) 
Tyrosine-protein kinase SYK

>  <Target Organism>  (514) 
Homo sapiens

>  <Target Type>  (514) 
SINGLE PROTEIN

>  <Document ChEMBL ID>  (514) 
CHEMBL3813650

>  <Source Description>  (514) 
Scientific Literature

>  <Document Journal>  (514) 
Bioorg Med Chem Lett

>  <Document Year>  (514) 
2016.0

>  <Active>  (514) 
0.0

>  <bits>  (514) 
<rdkit.DataStructs.cDataStructs.ExplicitBitVect object at 0x00000193F33E9000>

>  <Group>  (514) 
G2

$$$$

     RDKit          2D

 38 41  0  0  0  0  0  0  0  0999 V2000
    0.7500   -3.8971    0.0000 C   0  0  0  0  0  0  0  0  0  0  0  0
    1.5000   -2.5981    0.0000 N   0  0  0  0  0  0  0  0  0  0  0  0
    0.7500   -1.2990    0.0000 C   0  0  0  0  0  0  0  0  0  0  0  0
    1.5000    0.0000    0.0000 C   0  0  0  0  0  0  0  0  0  0  0  0
    0.7500    1.2990    0.0000 C   0  0  0  0  0  0  0  0  0  0  0  0
   -0.7500    1.2990    0.0000 C   0  0  0  0  0  0  0  0  0  0  0  0
   -1.5000    2.5981    0.0000 N   0  0  0  0  0  0  0  0  0  0  0  0
   -0.7500    3.8971    0.0000 C   0  0  0  0  0  0  0  0  0  0  0  0
    0.7500    3.8971    0.0000 O   0  0  0  0  0  0  0  0  0  0  0  0
   -1.5000    5.1962    0.0000 N   0  0  0  0  0  0  0  0  0  0  0  0
   -0.7500    6.4952    0.0000 C   0  0  0  0  0  0  0  0  0  0  0  0
    0.7500    6.4952    0.0000 C   0  0  0  0  0  0  0  0  0  0  0  0
    1.5000    5.1962    0.0000 Cl  0  0  0  0  0  0  0  0  0  0  0  0
    1.5000    7.7942    0.0000 C   0  0  0  0  0  0  0  0  0  0  0  0
    0.7500    9.0933    0.0000 C   0  0  0  0  0  0  0  0  0  0  0  0
   -0.7500    9.0933    0.0000 C   0  0  0  0  0  0  0  0  0  0  0  0
   -1.5000    7.7942    0.0000 C   0  0  0  0  0  0  0  0  0  0  0  0
   -3.0000    7.7942    0.0000 Cl  0  0  0  0  0  0  0  0  0  0  0  0
   -1.5000    0.0000    0.0000 C   0  0  0  0  0  0  0  0  0  0  0  0
   -0.7500   -1.2990    0.0000 C   0  0  0  0  0  0  0  0  0  0  0  0
    3.0000   -2.5981    0.0000 C   0  0  0  0  0  0  0  0  0  0  0  0
    3.7500   -3.8971    0.0000 C   0  0  0  0  0  0  0  0  0  0  0  0
    5.2500   -3.8971    0.0000 C   0  0  0  0  0  0  0  0  0  0  0  0
    6.0000   -2.5981    0.0000 N   0  0  0  0  0  0  0  0  0  0  0  0
    5.2500   -1.2990    0.0000 C   0  0  0  0  0  0  0  0  0  0  0  0
    6.0000   -0.0000    0.0000 N   0  0  0  0  0  0  0  0  0  0  0  0
    7.5000   -0.0000    0.0000 C   0  0  0  0  0  0  0  0  0  0  0  0
    8.2500   -1.2990    0.0000 C   0  0  0  0  0  0  0  0  0  0  0  0
    9.7500   -1.2990    0.0000 C   0  0  0  0  0  0  0  0  0  0  0  0
   10.5000   -0.0000    0.0000 C   0  0  0  0  0  0  0  0  0  0  0  0
    9.7500    1.2990    0.0000 C   0  0  0  0  0  0  0  0  0  0  0  0
   10.5000    2.5981    0.0000 C   0  0  0  0  0  0  0  0  0  0  0  0
   12.0000    2.5981    0.0000 S   0  0  0  0  0  0  0  0  0  0  0  0
   13.5000    2.5981    0.0000 C   0  0  0  0  0  0  0  0  0  0  0  0
   12.0000    1.0981    0.0000 O   0  0  0  0  0  0  0  0  0  0  0  0
   12.0000    4.0981    0.0000 O   0  0  0  0  0  0  0  0  0  0  0  0
    8.2500    1.2990    0.0000 C   0  0  0  0  0  0  0  0  0  0  0  0
    3.7500   -1.2990    0.0000 N   0  0  0  0  0  0  0  0  0  0  0  0
  1  2  1  0
  2  3  1  0
  3  4  2  0
  4  5  1  0
  5  6  2  0
  6  7  1  0
  7  8  1  0
  8  9  2  0
  8 10  1  0
 10 11  1  0
 11 12  2  0
 12 13  1  0
 12 14  1  0
 14 15  2  0
 15 16  1  0
 16 17  2  0
 17 18  1  0
  6 19  1  0
 19 20  2  0
  2 21  1  0
 21 22  2  0
 22 23  1  0
 23 24  2  0
 24 25  1  0
 25 26  1  0
 26 27  1  0
 27 28  2  0
 28 29  1  0
 29 30  2  0
 30 31  1  0
 31 32  1  0
 32 33  1  0
 33 34  1  0
 33 35  2  0
 33 36  2  0
 31 37  2  0
 25 38  2  0
 20  3  1  0
 38 21  1  0
 17 11  1  0
 37 27  1  0
M  END
>  <Compound_ID>  (515) 
CHEMBL189353

>  <Molecule Name>  (515) 
GW809897X

>  <Molecular Weight>  (515) 
571.49

>  <AlogP>  (515) 
6.48

>  <Smiles>  (515) 
CN(c1ccc(NC(=O)Nc2c(Cl)cccc2Cl)cc1)c1ccnc(Nc2cccc(CS(C)(=O)=O)c2)n1

>  <Standard Type>  (515) 
Inhibition

>  <Standard Relation>  (515) 
'='

>  <Standard Units>  (515) 
%

>  <Standard Value>  (515) 
2.77

>  <Assay ChEMBL ID>  (515) 
CHEMBL1962174

>  <Assay Description>  (515) 
GSK_PKIS: SYK mean inhibition at 0.1 uM [Nanosyn]

>  <BAO Format ID>  (515) 
BAO_0000357

>  <BAO Label>  (515) 
single protein format

>  <Assay Organism>  (515) 
None

>  <Target ChEMBL ID>  (515) 
CHEMBL2599

>  <Target Name>  (515) 
Tyrosine-protein kinase SYK

>  <Target Organism>  (515) 
Homo sapiens

>  <Target Type>  (515) 
SINGLE PROTEIN

>  <Document ChEMBL ID>  (515) 
CHEMBL1961873

>  <Source Description>  (515) 
GSK Published Kinase Inhibitor Set

>  <Document Journal>  (515) 
nan

>  <Document Year>  (515) 
nan

>  <Active>  (515) 
0.0

>  <bits>  (515) 
<rdkit.DataStructs.cDataStructs.ExplicitBitVect object at 0x00000193F33EA2D0>

>  <Group>  (515) 
G2

$$$$

     RDKit          2D

 36 41  0  0  0  0  0  0  0  0999 V2000
   -4.3764    3.7611    0.0000 C   0  0  0  0  0  0  0  0  0  0  0  0
   -2.9499    4.2246    0.0000 O   0  0  0  0  0  0  0  0  0  0  0  0
   -1.8351    3.2209    0.0000 C   0  0  0  0  0  0  0  0  0  0  0  0
   -2.1470    1.7537    0.0000 C   0  0  0  0  0  0  0  0  0  0  0  0
   -1.0323    0.7500    0.0000 C   0  0  0  0  0  0  0  0  0  0  0  0
    0.3943    1.2135    0.0000 C   0  0  0  0  0  0  0  0  0  0  0  0
    0.7062    2.6807    0.0000 C   0  0  0  0  0  0  0  0  0  0  0  0
   -0.4086    3.6844    0.0000 C   0  0  0  0  0  0  0  0  0  0  0  0
   -0.0967    5.1517    0.0000 N   0  0  0  0  0  0  0  0  0  0  0  0
    1.3299    5.6152    0.0000 C   0  0  0  0  0  0  0  0  0  0  0  0
    2.4446    4.6115    0.0000 N   0  0  0  0  0  0  0  0  0  0  0  0
    3.8712    5.0750    0.0000 C   0  0  0  0  0  0  0  0  0  0  0  0
    4.9859    4.0713    0.0000 N   0  0  0  0  0  0  0  0  0  0  0  0
    4.8291    2.5795    0.0000 C   0  0  0  0  0  0  0  0  0  0  0  0
    6.1994    1.9694    0.0000 C   0  0  0  0  0  0  0  0  0  0  0  0
    7.2031    3.0842    0.0000 C   0  0  0  0  0  0  0  0  0  0  0  0
    8.7031    3.0842    0.0000 C   0  0  0  0  0  0  0  0  0  0  0  0
    9.4531    4.3832    0.0000 C   0  0  0  0  0  0  0  0  0  0  0  0
    8.7031    5.6822    0.0000 C   0  0  0  0  0  0  0  0  0  0  0  0
    7.2031    5.6822    0.0000 C   0  0  0  0  0  0  0  0  0  0  0  0
    6.4531    4.3832    0.0000 C   0  0  0  0  0  0  0  0  0  0  0  0
    4.1831    6.5422    0.0000 C   0  0  0  0  0  0  0  0  0  0  0  0
    5.4821    7.2922    0.0000 C   0  0  0  0  0  0  0  0  0  0  0  0
    5.1702    8.7595    0.0000 C   0  0  0  0  0  0  0  0  0  0  0  0
    3.6785    8.9163    0.0000 N   0  0  0  0  0  0  0  0  0  0  0  0
    3.0684    7.5459    0.0000 C   0  0  0  0  0  0  0  0  0  0  0  0
    1.6418    7.0824    0.0000 N   0  0  0  0  0  0  0  0  0  0  0  0
    1.2760    0.0000    0.0000 N   0  0  0  0  0  0  0  0  0  0  0  0
    2.7760    0.0000    0.0000 C   0  0  0  0  0  0  0  0  0  0  0  0
    3.5260    1.2990    0.0000 O   0  0  0  0  0  0  0  0  0  0  0  0
    3.5260   -1.2990    0.0000 C   0  0  0  0  0  0  0  0  0  0  0  0
    5.0260   -1.2990    0.0000 N   0  0  0  0  0  0  0  0  0  0  0  0
    5.7760   -2.5981    0.0000 C   0  0  0  0  0  0  0  0  0  0  0  0
    5.7760    0.0000    0.0000 C   0  0  0  0  0  0  0  0  0  0  0  0
    0.3943   -1.2135    0.0000 C   0  0  0  0  0  0  0  0  0  0  0  0
   -1.0323   -0.7500    0.0000 C   0  0  0  0  0  0  0  0  0  0  0  0
  1  2  1  0
  2  3  1  0
  3  4  2  0
  4  5  1  0
  5  6  2  0
  6  7  1  0
  7  8  2  0
  8  9  1  0
  9 10  1  0
 10 11  2  0
 11 12  1  0
 12 13  1  0
 13 14  1  0
 14 15  1  0
 15 16  1  0
 16 17  2  0
 17 18  1  0
 18 19  2  0
 19 20  1  0
 20 21  2  0
 12 22  2  0
 22 23  1  0
 23 24  2  0
 24 25  1  0
 25 26  1  0
 26 27  2  0
  6 28  1  0
 28 29  1  0
 29 30  2  0
 29 31  1  0
 31 32  1  0
 32 33  1  0
 32 34  1  0
 28 35  1  0
 35 36  1  0
  8  3  1  0
 27 10  1  0
 36  5  1  0
 21 13  1  0
 26 22  1  0
 21 16  1  0
M  END
>  <Compound_ID>  (516) 
CHEMBL458415

>  <Molecule Name>  (516) 
GSK-2186269A

>  <Molecular Weight>  (516) 
483.58

>  <AlogP>  (516) 
3.86

>  <Smiles>  (516) 
COc1cc2c(cc1Nc1nc(N3CCc4ccccc43)c3cc[nH]c3n1)N(C(=O)CN(C)C)CC2

>  <Standard Type>  (516) 
Inhibition

>  <Standard Relation>  (516) 
'='

>  <Standard Units>  (516) 
%

>  <Standard Value>  (516) 
0.91

>  <Assay ChEMBL ID>  (516) 
CHEMBL1962174

>  <Assay Description>  (516) 
GSK_PKIS: SYK mean inhibition at 0.1 uM [Nanosyn]

>  <BAO Format ID>  (516) 
BAO_0000357

>  <BAO Label>  (516) 
single protein format

>  <Assay Organism>  (516) 
None

>  <Target ChEMBL ID>  (516) 
CHEMBL2599

>  <Target Name>  (516) 
Tyrosine-protein kinase SYK

>  <Target Organism>  (516) 
Homo sapiens

>  <Target Type>  (516) 
SINGLE PROTEIN

>  <Document ChEMBL ID>  (516) 
CHEMBL1961873

>  <Source Description>  (516) 
GSK Published Kinase Inhibitor Set

>  <Document Journal>  (516) 
nan

>  <Document Year>  (516) 
nan

>  <Active>  (516) 
0.0

>  <bits>  (516) 
<rdkit.DataStructs.cDataStructs.ExplicitBitVect object at 0x00000193F33EAB20>

>  <Group>  (516) 
G2

$$$$

     RDKit          2D

 33 36  0  0  0  0  0  0  0  0999 V2000
   -3.7548   -2.1855    0.0000 C   0  0  0  0  0  0  0  0  0  0  0  0
   -2.6401   -3.1891    0.0000 C   0  0  0  0  0  0  0  0  0  0  0  0
   -1.2135   -2.7256    0.0000 N   0  0  0  0  0  0  0  0  0  0  0  0
   -0.0000   -3.6073    0.0000 C   0  0  0  0  0  0  0  0  0  0  0  0
   -0.0000   -5.1073    0.0000 C   0  0  0  0  0  0  0  0  0  0  0  0
    1.2135   -5.9890    0.0000 N   0  0  0  0  0  0  0  0  0  0  0  0
    0.7500   -7.4156    0.0000 O   0  0  0  0  0  0  0  0  0  0  0  0
   -0.7500   -7.4156    0.0000 N   0  0  0  0  0  0  0  0  0  0  0  0
   -1.2135   -5.9890    0.0000 C   0  0  0  0  0  0  0  0  0  0  0  0
   -2.6401   -5.5255    0.0000 N   0  0  0  0  0  0  0  0  0  0  0  0
    1.2135   -2.7256    0.0000 N   0  0  0  0  0  0  0  0  0  0  0  0
    0.7500   -1.2990    0.0000 C   0  0  0  0  0  0  0  0  0  0  0  0
    1.5000    0.0000    0.0000 C   0  0  0  0  0  0  0  0  0  0  0  0
    3.0000    0.0000    0.0000 C   0  0  0  0  0  0  0  0  0  0  0  0
    4.5000    0.0000    0.0000 C   0  0  0  0  0  0  0  0  0  0  0  0
    6.0000    0.0000    0.0000 C   0  0  0  0  0  0  0  0  0  0  0  0
    6.0000   -1.5000    0.0000 C   0  0  0  0  0  0  0  0  0  0  0  0
    6.0000    1.5000    0.0000 C   0  0  0  0  0  0  0  0  0  0  0  0
    7.5000    0.0000    0.0000 O   0  0  0  0  0  0  0  0  0  0  0  0
    0.7500    1.2990    0.0000 N   0  0  0  0  0  0  0  0  0  0  0  0
   -0.7500    1.2990    0.0000 C   0  0  0  0  0  0  0  0  0  0  0  0
   -1.5000    2.5981    0.0000 O   0  0  0  0  0  0  0  0  0  0  0  0
   -0.7500    3.8971    0.0000 C   0  0  0  0  0  0  0  0  0  0  0  0
   -1.5000    5.1962    0.0000 C   0  0  0  0  0  0  0  0  0  0  0  0
   -3.0000    5.1962    0.0000 N   0  0  0  0  0  0  0  0  0  0  0  0
   -0.7500    6.4952    0.0000 C   0  0  0  0  0  0  0  0  0  0  0  0
    0.7500    6.4952    0.0000 C   0  0  0  0  0  0  0  0  0  0  0  0
    1.5000    7.7942    0.0000 C   0  0  0  0  0  0  0  0  0  0  0  0
    0.7500    9.0933    0.0000 C   0  0  0  0  0  0  0  0  0  0  0  0
   -0.7500    9.0933    0.0000 C   0  0  0  0  0  0  0  0  0  0  0  0
   -1.5000    7.7942    0.0000 C   0  0  0  0  0  0  0  0  0  0  0  0
   -1.5000    0.0000    0.0000 C   0  0  0  0  0  0  0  0  0  0  0  0
   -0.7500   -1.2990    0.0000 C   0  0  0  0  0  0  0  0  0  0  0  0
  1  2  1  0
  2  3  1  0
  3  4  1  0
  4  5  1  0
  5  6  2  0
  6  7  1  0
  7  8  1  0
  8  9  2  0
  9 10  1  0
  4 11  2  0
 11 12  1  0
 12 13  2  0
 13 14  1  0
 14 15  3  0
 15 16  1  0
 16 17  1  0
 16 18  1  0
 16 19  1  0
 13 20  1  0
 20 21  2  0
 21 22  1  0
 22 23  1  0
 23 24  1  0
 24 25  1  1
 24 26  1  0
 26 27  2  0
 27 28  1  0
 28 29  2  0
 29 30  1  0
 30 31  2  0
 21 32  1  0
 32 33  2  0
 33  3  1  0
  9  5  1  0
 33 12  1  0
 31 26  1  0
M  END
>  <Compound_ID>  (517) 
CHEMBL1096626

>  <Molecule Name>  (517) 
GSK-938890A

>  <Molecular Weight>  (517) 
447.5

>  <AlogP>  (517) 
2.28

>  <Smiles>  (517) 
CCn1c(-c2nonc2N)nc2c(C#CC(C)(C)O)nc(OC[C@@H](N)c3ccccc3)cc21

>  <Standard Type>  (517) 
Inhibition

>  <Standard Relation>  (517) 
'='

>  <Standard Units>  (517) 
%

>  <Standard Value>  (517) 
-1.58

>  <Assay ChEMBL ID>  (517) 
CHEMBL1962174

>  <Assay Description>  (517) 
GSK_PKIS: SYK mean inhibition at 0.1 uM [Nanosyn]

>  <BAO Format ID>  (517) 
BAO_0000357

>  <BAO Label>  (517) 
single protein format

>  <Assay Organism>  (517) 
None

>  <Target ChEMBL ID>  (517) 
CHEMBL2599

>  <Target Name>  (517) 
Tyrosine-protein kinase SYK

>  <Target Organism>  (517) 
Homo sapiens

>  <Target Type>  (517) 
SINGLE PROTEIN

>  <Document ChEMBL ID>  (517) 
CHEMBL1961873

>  <Source Description>  (517) 
GSK Published Kinase Inhibitor Set

>  <Document Journal>  (517) 
nan

>  <Document Year>  (517) 
nan

>  <Active>  (517) 
0.0

>  <bits>  (517) 
<rdkit.DataStructs.cDataStructs.ExplicitBitVect object at 0x00000193F33E8040>

>  <Group>  (517) 
G2

$$$$

     RDKit          2D

 24 27  0  0  0  0  0  0  0  0999 V2000
   -6.9771   -5.6725    0.0000 C   0  0  0  0  0  0  0  0  0  0  0  0
   -5.4853   -5.8293    0.0000 C   0  0  0  0  0  0  0  0  0  0  0  0
   -4.8752   -7.1996    0.0000 C   0  0  0  0  0  0  0  0  0  0  0  0
   -4.6036   -4.6157    0.0000 N   0  0  0  0  0  0  0  0  0  0  0  0
   -3.1036   -4.6157    0.0000 C   0  0  0  0  0  0  0  0  0  0  0  0
   -2.6401   -3.1891    0.0000 C   0  0  0  0  0  0  0  0  0  0  0  0
   -1.2135   -2.7256    0.0000 C   0  0  0  0  0  0  0  0  0  0  0  0
   -0.0000   -3.6073    0.0000 N   0  0  0  0  0  0  0  0  0  0  0  0
    1.2135   -2.7256    0.0000 N   0  0  0  0  0  0  0  0  0  0  0  0
    0.7500   -1.2990    0.0000 C   0  0  0  0  0  0  0  0  0  0  0  0
    1.5000    0.0000    0.0000 C   0  0  0  0  0  0  0  0  0  0  0  0
    0.7500    1.2990    0.0000 C   0  0  0  0  0  0  0  0  0  0  0  0
   -0.7500    1.2990    0.0000 N   0  0  0  0  0  0  0  0  0  0  0  0
   -1.5000    0.0000    0.0000 C   0  0  0  0  0  0  0  0  0  0  0  0
   -3.0000    0.0000    0.0000 O   0  0  0  0  0  0  0  0  0  0  0  0
   -3.7500    1.2990    0.0000 C   0  0  0  0  0  0  0  0  0  0  0  0
   -3.0000    2.5981    0.0000 C   0  0  0  0  0  0  0  0  0  0  0  0
   -3.7500    3.8971    0.0000 C   0  0  0  0  0  0  0  0  0  0  0  0
   -5.2500    3.8971    0.0000 O   0  0  0  0  0  0  0  0  0  0  0  0
   -6.0000    2.5981    0.0000 C   0  0  0  0  0  0  0  0  0  0  0  0
   -5.2500    1.2990    0.0000 C   0  0  0  0  0  0  0  0  0  0  0  0
   -0.7500   -1.2990    0.0000 C   0  0  0  0  0  0  0  0  0  0  0  0
   -3.8536   -2.3075    0.0000 C   0  0  0  0  0  0  0  0  0  0  0  0
   -5.0672   -3.1891    0.0000 N   0  0  0  0  0  0  0  0  0  0  0  0
  1  2  1  0
  2  3  1  0
  2  4  1  0
  4  5  1  0
  5  6  2  0
  6  7  1  0
  7  8  2  0
  8  9  1  0
  9 10  1  0
 10 11  2  0
 11 12  1  0
 12 13  2  0
 13 14  1  0
 14 15  1  0
 15 16  1  0
 16 17  1  0
 17 18  1  0
 18 19  1  0
 19 20  1  0
 20 21  1  0
 14 22  2  0
  6 23  1  0
 23 24  2  0
 24  4  1  0
 22  7  1  0
 22 10  1  0
 21 16  1  0
M  END
>  <Compound_ID>  (518) 
CHEMBL4589022

>  <Molecule Name>  (518) 
nan

>  <Molecular Weight>  (518) 
327.39

>  <AlogP>  (518) 
2.96

>  <Smiles>  (518) 
CC(C)n1cc(-c2n[nH]c3ccnc(OC4CCOCC4)c23)cn1

>  <Standard Type>  (518) 
Inhibition

>  <Standard Relation>  (518) 
'='

>  <Standard Units>  (518) 
%

>  <Standard Value>  (518) 
0.0

>  <Assay ChEMBL ID>  (518) 
CHEMBL4332020

>  <Assay Description>  (518) 
Inhibition of SYK (unknown origin) at 1 uM relative to control

>  <BAO Format ID>  (518) 
BAO_0000357

>  <BAO Label>  (518) 
single protein format

>  <Assay Organism>  (518) 
Homo sapiens

>  <Target ChEMBL ID>  (518) 
CHEMBL2599

>  <Target Name>  (518) 
Tyrosine-protein kinase SYK

>  <Target Organism>  (518) 
Homo sapiens

>  <Target Type>  (518) 
SINGLE PROTEIN

>  <Document ChEMBL ID>  (518) 
CHEMBL4330096

>  <Source Description>  (518) 
Scientific Literature

>  <Document Journal>  (518) 
Bioorg Med Chem Lett

>  <Document Year>  (518) 
2019.0

>  <Active>  (518) 
0.0

>  <bits>  (518) 
<rdkit.DataStructs.cDataStructs.ExplicitBitVect object at 0x00000193F33E9620>

>  <Group>  (518) 
G2

$$$$

     RDKit          2D

 29 32  0  0  0  0  0  0  0  0999 V2000
    3.7500   -1.2990    0.0000 C   0  0  0  0  0  0  0  0  0  0  0  0
    3.0000    0.0000    0.0000 O   0  0  0  0  0  0  0  0  0  0  0  0
    1.5000    0.0000    0.0000 C   0  0  0  0  0  0  0  0  0  0  0  0
    0.7500   -1.2990    0.0000 C   0  0  0  0  0  0  0  0  0  0  0  0
   -0.7500   -1.2990    0.0000 C   0  0  0  0  0  0  0  0  0  0  0  0
   -1.5000    0.0000    0.0000 C   0  0  0  0  0  0  0  0  0  0  0  0
   -2.9672    0.3119    0.0000 C   0  0  0  0  0  0  0  0  0  0  0  0
   -4.0819   -0.6918    0.0000 C   0  0  0  0  0  0  0  0  0  0  0  0
   -5.5085   -0.2283    0.0000 C   0  0  0  0  0  0  0  0  0  0  0  0
   -6.6232   -1.2320    0.0000 C   0  0  0  0  0  0  0  0  0  0  0  0
   -6.3114   -2.6992    0.0000 N   0  0  0  0  0  0  0  0  0  0  0  0
   -4.8848   -3.1627    0.0000 C   0  0  0  0  0  0  0  0  0  0  0  0
   -4.5729   -4.6300    0.0000 N   0  0  0  0  0  0  0  0  0  0  0  0
   -5.6876   -5.6337    0.0000 C   0  0  0  0  0  0  0  0  0  0  0  0
   -7.1142   -5.1701    0.0000 C   0  0  0  0  0  0  0  0  0  0  0  0
   -8.2289   -6.1738    0.0000 C   0  0  0  0  0  0  0  0  0  0  0  0
   -7.9171   -7.6411    0.0000 C   0  0  0  0  0  0  0  0  0  0  0  0
   -6.4905   -8.1046    0.0000 C   0  0  0  0  0  0  0  0  0  0  0  0
   -6.1786   -9.5718    0.0000 O   0  0  0  0  0  0  0  0  0  0  0  0
   -7.2933  -10.5755    0.0000 C   0  0  0  0  0  0  0  0  0  0  0  0
   -8.4081  -11.5792    0.0000 F   0  0  0  0  0  0  0  0  0  0  0  0
   -6.2896  -11.6902    0.0000 F   0  0  0  0  0  0  0  0  0  0  0  0
   -8.2970   -9.4608    0.0000 F   0  0  0  0  0  0  0  0  0  0  0  0
   -5.3758   -7.1009    0.0000 C   0  0  0  0  0  0  0  0  0  0  0  0
   -3.7701   -2.1590    0.0000 N   0  0  0  0  0  0  0  0  0  0  0  0
   -3.1240    1.8037    0.0000 C   0  0  0  0  0  0  0  0  0  0  0  0
   -1.7537    2.4138    0.0000 N   0  0  0  0  0  0  0  0  0  0  0  0
   -0.7500    1.2990    0.0000 N   0  0  0  0  0  0  0  0  0  0  0  0
    0.7500    1.2990    0.0000 N   0  0  0  0  0  0  0  0  0  0  0  0
  1  2  1  0
  2  3  1  0
  3  4  1  0
  4  5  2  0
  5  6  1  0
  6  7  2  0
  7  8  1  0
  8  9  2  0
  9 10  1  0
 10 11  2  0
 11 12  1  0
 12 13  1  0
 13 14  1  0
 14 15  2  0
 15 16  1  0
 16 17  2  0
 17 18  1  0
 18 19  1  0
 19 20  1  0
 20 21  1  0
 20 22  1  0
 20 23  1  0
 18 24  2  0
 12 25  2  0
  7 26  1  0
 26 27  2  0
 27 28  1  0
 28 29  1  0
 29  3  2  0
 28  6  1  0
 25  8  1  0
 24 14  1  0
M  END
>  <Compound_ID>  (519) 
CHEMBL365248

>  <Molecule Name>  (519) 
GW810372X

>  <Molecular Weight>  (519) 
402.34

>  <AlogP>  (519) 
3.84

>  <Smiles>  (519) 
COc1ccc2c(-c3ccnc(Nc4cccc(OC(F)(F)F)c4)n3)cnn2n1

>  <Standard Type>  (519) 
Inhibition

>  <Standard Relation>  (519) 
'='

>  <Standard Units>  (519) 
%

>  <Standard Value>  (519) 
-2.58

>  <Assay ChEMBL ID>  (519) 
CHEMBL1962174

>  <Assay Description>  (519) 
GSK_PKIS: SYK mean inhibition at 0.1 uM [Nanosyn]

>  <BAO Format ID>  (519) 
BAO_0000357

>  <BAO Label>  (519) 
single protein format

>  <Assay Organism>  (519) 
None

>  <Target ChEMBL ID>  (519) 
CHEMBL2599

>  <Target Name>  (519) 
Tyrosine-protein kinase SYK

>  <Target Organism>  (519) 
Homo sapiens

>  <Target Type>  (519) 
SINGLE PROTEIN

>  <Document ChEMBL ID>  (519) 
CHEMBL1961873

>  <Source Description>  (519) 
GSK Published Kinase Inhibitor Set

>  <Document Journal>  (519) 
nan

>  <Document Year>  (519) 
nan

>  <Active>  (519) 
0.0

>  <bits>  (519) 
<rdkit.DataStructs.cDataStructs.ExplicitBitVect object at 0x00000193F33E8E40>

>  <Group>  (519) 
G2

$$$$

     RDKit          2D

 28 31  0  0  0  0  0  0  0  0999 V2000
  -11.7058    2.3123    0.0000 C   0  0  0  0  0  0  0  0  0  0  0  0
  -10.5911    1.3086    0.0000 C   0  0  0  0  0  0  0  0  0  0  0  0
   -9.1645    1.7722    0.0000 C   0  0  0  0  0  0  0  0  0  0  0  0
   -8.0498    0.7685    0.0000 N   0  0  0  0  0  0  0  0  0  0  0  0
   -6.6232    1.2320    0.0000 C   0  0  0  0  0  0  0  0  0  0  0  0
   -6.3114    2.6992    0.0000 C   0  0  0  0  0  0  0  0  0  0  0  0
   -4.8848    3.1627    0.0000 C   0  0  0  0  0  0  0  0  0  0  0  0
   -3.7701    2.1590    0.0000 C   0  0  0  0  0  0  0  0  0  0  0  0
   -4.0819    0.6918    0.0000 C   0  0  0  0  0  0  0  0  0  0  0  0
   -2.9672   -0.3119    0.0000 N   0  0  0  0  0  0  0  0  0  0  0  0
   -3.1240   -1.8037    0.0000 N   0  0  0  0  0  0  0  0  0  0  0  0
   -1.7537   -2.4138    0.0000 C   0  0  0  0  0  0  0  0  0  0  0  0
   -0.7500   -1.2990    0.0000 C   0  0  0  0  0  0  0  0  0  0  0  0
    0.7500   -1.2990    0.0000 C   0  0  0  0  0  0  0  0  0  0  0  0
    1.5000   -2.5981    0.0000 N   0  0  0  0  0  0  0  0  0  0  0  0
    3.0000   -2.5981    0.0000 N   0  0  0  0  0  0  0  0  0  0  0  0
    3.7500   -3.8971    0.0000 C   0  0  0  0  0  0  0  0  0  0  0  0
    5.2500   -3.8971    0.0000 C   0  0  0  0  0  0  0  0  0  0  0  0
    6.0000   -5.1962    0.0000 C   0  0  0  0  0  0  0  0  0  0  0  0
    7.5000   -5.1962    0.0000 C   0  0  0  0  0  0  0  0  0  0  0  0
    8.2500   -3.8971    0.0000 N   0  0  0  0  0  0  0  0  0  0  0  0
    7.5000   -2.5981    0.0000 C   0  0  0  0  0  0  0  0  0  0  0  0
    6.0000   -2.5981    0.0000 C   0  0  0  0  0  0  0  0  0  0  0  0
    1.5000    0.0000    0.0000 N   0  0  0  0  0  0  0  0  0  0  0  0
    0.7500    1.2990    0.0000 C   0  0  0  0  0  0  0  0  0  0  0  0
   -0.7500    1.2990    0.0000 N   0  0  0  0  0  0  0  0  0  0  0  0
   -1.5000    0.0000    0.0000 C   0  0  0  0  0  0  0  0  0  0  0  0
   -5.5085    0.2283    0.0000 C   0  0  0  0  0  0  0  0  0  0  0  0
  1  2  1  0
  2  3  1  0
  3  4  1  0
  4  5  1  0
  5  6  2  0
  6  7  1  0
  7  8  2  0
  8  9  1  0
  9 10  1  0
 10 11  1  0
 11 12  2  0
 12 13  1  0
 13 14  2  0
 14 15  1  0
 15 16  1  0
 16 17  2  0
 17 18  1  0
 18 19  2  0
 19 20  1  0
 20 21  2  0
 21 22  1  0
 22 23  2  0
 14 24  1  0
 24 25  2  0
 25 26  1  0
 26 27  2  0
  9 28  2  0
 28  5  1  0
 27 10  1  0
 27 13  1  0
 23 18  1  0
M  END
>  <Compound_ID>  (520) 
CHEMBL67241

>  <Molecule Name>  (520) 
GW794607X

>  <Molecular Weight>  (520) 
372.44

>  <AlogP>  (520) 
3.48

>  <Smiles>  (520) 
CCCNc1cccc(-n2ncc3c(N/N=C/c4ccncc4)ncnc32)c1

>  <Standard Type>  (520) 
Inhibition

>  <Standard Relation>  (520) 
'='

>  <Standard Units>  (520) 
%

>  <Standard Value>  (520) 
3.8

>  <Assay ChEMBL ID>  (520) 
CHEMBL1962174

>  <Assay Description>  (520) 
GSK_PKIS: SYK mean inhibition at 0.1 uM [Nanosyn]

>  <BAO Format ID>  (520) 
BAO_0000357

>  <BAO Label>  (520) 
single protein format

>  <Assay Organism>  (520) 
None

>  <Target ChEMBL ID>  (520) 
CHEMBL2599

>  <Target Name>  (520) 
Tyrosine-protein kinase SYK

>  <Target Organism>  (520) 
Homo sapiens

>  <Target Type>  (520) 
SINGLE PROTEIN

>  <Document ChEMBL ID>  (520) 
CHEMBL1961873

>  <Source Description>  (520) 
GSK Published Kinase Inhibitor Set

>  <Document Journal>  (520) 
nan

>  <Document Year>  (520) 
nan

>  <Active>  (520) 
0.0

>  <bits>  (520) 
<rdkit.DataStructs.cDataStructs.ExplicitBitVect object at 0x00000193F33EB5A0>

>  <Group>  (520) 
G2

$$$$

     RDKit          2D

 26 29  0  0  0  0  0  0  0  0999 V2000
   -9.1645    1.7722    0.0000 C   0  0  0  0  0  0  0  0  0  0  0  0
   -8.0498    0.7685    0.0000 O   0  0  0  0  0  0  0  0  0  0  0  0
   -6.6232    1.2320    0.0000 C   0  0  0  0  0  0  0  0  0  0  0  0
   -6.3114    2.6992    0.0000 C   0  0  0  0  0  0  0  0  0  0  0  0
   -4.8848    3.1627    0.0000 C   0  0  0  0  0  0  0  0  0  0  0  0
   -3.7701    2.1590    0.0000 C   0  0  0  0  0  0  0  0  0  0  0  0
   -4.0819    0.6918    0.0000 C   0  0  0  0  0  0  0  0  0  0  0  0
   -2.9672   -0.3119    0.0000 C   0  0  0  0  0  0  0  0  0  0  0  0
   -3.1240   -1.8037    0.0000 C   0  0  0  0  0  0  0  0  0  0  0  0
   -1.7537   -2.4138    0.0000 N   0  0  0  0  0  0  0  0  0  0  0  0
   -0.7500   -1.2990    0.0000 C   0  0  0  0  0  0  0  0  0  0  0  0
    0.7500   -1.2990    0.0000 C   0  0  0  0  0  0  0  0  0  0  0  0
    1.5000   -2.5981    0.0000 N   0  0  0  0  0  0  0  0  0  0  0  0
    3.0000   -2.5981    0.0000 N   0  0  0  0  0  0  0  0  0  0  0  0
    3.7500   -3.8971    0.0000 C   0  0  0  0  0  0  0  0  0  0  0  0
    5.2500   -3.8971    0.0000 C   0  0  0  0  0  0  0  0  0  0  0  0
    6.0000   -5.1962    0.0000 C   0  0  0  0  0  0  0  0  0  0  0  0
    7.5000   -5.1962    0.0000 C   0  0  0  0  0  0  0  0  0  0  0  0
    8.2500   -3.8971    0.0000 N   0  0  0  0  0  0  0  0  0  0  0  0
    7.5000   -2.5981    0.0000 C   0  0  0  0  0  0  0  0  0  0  0  0
    6.0000   -2.5981    0.0000 C   0  0  0  0  0  0  0  0  0  0  0  0
    1.5000    0.0000    0.0000 N   0  0  0  0  0  0  0  0  0  0  0  0
    0.7500    1.2990    0.0000 C   0  0  0  0  0  0  0  0  0  0  0  0
   -0.7500    1.2990    0.0000 N   0  0  0  0  0  0  0  0  0  0  0  0
   -1.5000    0.0000    0.0000 C   0  0  0  0  0  0  0  0  0  0  0  0
   -5.5085    0.2283    0.0000 C   0  0  0  0  0  0  0  0  0  0  0  0
  1  2  1  0
  2  3  1  0
  3  4  2  0
  4  5  1  0
  5  6  2  0
  6  7  1  0
  7  8  1  0
  8  9  2  0
  9 10  1  0
 10 11  1  0
 11 12  2  0
 12 13  1  0
 13 14  1  0
 14 15  2  0
 15 16  1  0
 16 17  2  0
 17 18  1  0
 18 19  2  0
 19 20  1  0
 20 21  2  0
 12 22  1  0
 22 23  2  0
 23 24  1  0
 24 25  2  0
  7 26  2  0
 26  3  1  0
 25  8  1  0
 25 11  1  0
 21 16  1  0
M  END
>  <Compound_ID>  (521) 
CHEMBL206010

>  <Molecule Name>  (521) 
GW814408X

>  <Molecular Weight>  (521) 
344.38

>  <AlogP>  (521) 
3.47

>  <Smiles>  (521) 
COc1cccc(-c2c[nH]c3c(N/N=C/c4ccncc4)ncnc23)c1

>  <Standard Type>  (521) 
Inhibition

>  <Standard Relation>  (521) 
'='

>  <Standard Units>  (521) 
%

>  <Standard Value>  (521) 
4.79

>  <Assay ChEMBL ID>  (521) 
CHEMBL1962175

>  <Assay Description>  (521) 
GSK_PKIS: SYK mean inhibition at 1 uM [Nanosyn]

>  <BAO Format ID>  (521) 
BAO_0000357

>  <BAO Label>  (521) 
single protein format

>  <Assay Organism>  (521) 
None

>  <Target ChEMBL ID>  (521) 
CHEMBL2599

>  <Target Name>  (521) 
Tyrosine-protein kinase SYK

>  <Target Organism>  (521) 
Homo sapiens

>  <Target Type>  (521) 
SINGLE PROTEIN

>  <Document ChEMBL ID>  (521) 
CHEMBL1961873

>  <Source Description>  (521) 
GSK Published Kinase Inhibitor Set

>  <Document Journal>  (521) 
nan

>  <Document Year>  (521) 
nan

>  <Active>  (521) 
0.0

>  <bits>  (521) 
<rdkit.DataStructs.cDataStructs.ExplicitBitVect object at 0x00000193F33EB680>

>  <Group>  (521) 
G2

$$$$

     RDKit          2D

 23 27  0  0  0  0  0  0  0  0999 V2000
    5.1707    3.5118    0.0000 C   0  0  0  0  0  0  0  0  0  0  0  0
    3.8717    2.7618    0.0000 C   0  0  0  0  0  0  0  0  0  0  0  0
    2.5727    3.5118    0.0000 C   0  0  0  0  0  0  0  0  0  0  0  0
    2.5727    5.0118    0.0000 C   0  0  0  0  0  0  0  0  0  0  0  0
    1.2736    5.7618    0.0000 C   0  0  0  0  0  0  0  0  0  0  0  0
    1.1168    7.2536    0.0000 N   0  0  0  0  0  0  0  0  0  0  0  0
   -0.3504    7.5654    0.0000 C   0  0  0  0  0  0  0  0  0  0  0  0
   -1.1004    6.2664    0.0000 N   0  0  0  0  0  0  0  0  0  0  0  0
   -0.0967    5.1517    0.0000 C   0  0  0  0  0  0  0  0  0  0  0  0
   -0.4086    3.6844    0.0000 C   0  0  0  0  0  0  0  0  0  0  0  0
   -1.8351    3.2209    0.0000 C   0  0  0  0  0  0  0  0  0  0  0  0
   -2.1470    1.7537    0.0000 C   0  0  0  0  0  0  0  0  0  0  0  0
   -1.0323    0.7500    0.0000 C   0  0  0  0  0  0  0  0  0  0  0  0
    0.3943    1.2135    0.0000 C   0  0  0  0  0  0  0  0  0  0  0  0
    0.7062    2.6807    0.0000 C   0  0  0  0  0  0  0  0  0  0  0  0
    1.2760    0.0000    0.0000 O   0  0  0  0  0  0  0  0  0  0  0  0
    0.3943   -1.2135    0.0000 C   0  0  0  0  0  0  0  0  0  0  0  0
   -1.0323   -0.7500    0.0000 O   0  0  0  0  0  0  0  0  0  0  0  0
   -2.5676    6.5782    0.0000 C   0  0  0  0  0  0  0  0  0  0  0  0
   -2.7244    8.0700    0.0000 C   0  0  0  0  0  0  0  0  0  0  0  0
   -1.3541    8.6801    0.0000 C   0  0  0  0  0  0  0  0  0  0  0  0
    3.8717    5.7618    0.0000 N   0  0  0  0  0  0  0  0  0  0  0  0
    5.1707    5.0118    0.0000 C   0  0  0  0  0  0  0  0  0  0  0  0
  1  2  2  0
  2  3  1  0
  3  4  2  0
  4  5  1  0
  5  6  1  0
  6  7  2  0
  7  8  1  0
  8  9  1  0
  9 10  1  0
 10 11  2  0
 11 12  1  0
 12 13  2  0
 13 14  1  0
 14 15  2  0
 14 16  1  0
 16 17  1  0
 17 18  1  0
  8 19  1  0
 19 20  1  0
 20 21  1  0
  4 22  1  0
 22 23  2  0
 23  1  1  0
  9  5  2  0
 15 10  1  0
 21  7  1  0
 18 13  1  0
M  END
>  <Compound_ID>  (522) 
CHEMBL1909377

>  <Molecule Name>  (522) 
nan

>  <Molecular Weight>  (522) 
341.8

>  <AlogP>  (522) 
3.29

>  <Smiles>  (522) 
c1ccc(-c2nc3n(c2-c2ccc4c(c2)OCO4)CCC3)nc1

>  <Standard Type>  (522) 
Inhibition

>  <Standard Relation>  (522) 
'='

>  <Standard Units>  (522) 
%

>  <Standard Value>  (522) 
2.09

>  <Assay ChEMBL ID>  (522) 
CHEMBL1962175

>  <Assay Description>  (522) 
GSK_PKIS: SYK mean inhibition at 1 uM [Nanosyn]

>  <BAO Format ID>  (522) 
BAO_0000357

>  <BAO Label>  (522) 
single protein format

>  <Assay Organism>  (522) 
None

>  <Target ChEMBL ID>  (522) 
CHEMBL2599

>  <Target Name>  (522) 
Tyrosine-protein kinase SYK

>  <Target Organism>  (522) 
Homo sapiens

>  <Target Type>  (522) 
SINGLE PROTEIN

>  <Document ChEMBL ID>  (522) 
CHEMBL1961873

>  <Source Description>  (522) 
GSK Published Kinase Inhibitor Set

>  <Document Journal>  (522) 
nan

>  <Document Year>  (522) 
nan

>  <Active>  (522) 
0.0

>  <bits>  (522) 
<rdkit.DataStructs.cDataStructs.ExplicitBitVect object at 0x00000193F33E91C0>

>  <Group>  (522) 
G2

$$$$

     RDKit          2D

 21 23  0  0  0  0  0  0  0  0999 V2000
    4.0667   -3.6527    0.0000 N   0  0  0  0  0  0  0  0  0  0  0  0
    2.6401   -3.1891    0.0000 C   0  0  0  0  0  0  0  0  0  0  0  0
    1.2135   -2.7256    0.0000 C   0  0  0  0  0  0  0  0  0  0  0  0
   -0.0000   -3.6073    0.0000 C   0  0  0  0  0  0  0  0  0  0  0  0
   -0.0000   -5.1073    0.0000 N   0  0  0  0  0  0  0  0  0  0  0  0
   -1.2990   -5.8573    0.0000 C   0  0  0  0  0  0  0  0  0  0  0  0
   -2.5981   -5.1073    0.0000 O   0  0  0  0  0  0  0  0  0  0  0  0
   -1.2990   -7.3573    0.0000 C   0  0  0  0  0  0  0  0  0  0  0  0
   -2.5981   -8.1073    0.0000 C   0  0  0  0  0  0  0  0  0  0  0  0
   -2.5981   -9.6073    0.0000 C   0  0  0  0  0  0  0  0  0  0  0  0
   -1.2990  -10.3573    0.0000 C   0  0  0  0  0  0  0  0  0  0  0  0
    0.0000   -9.6073    0.0000 C   0  0  0  0  0  0  0  0  0  0  0  0
    0.0000   -8.1073    0.0000 C   0  0  0  0  0  0  0  0  0  0  0  0
    1.2990   -7.3573    0.0000 F   0  0  0  0  0  0  0  0  0  0  0  0
   -1.2135   -2.7256    0.0000 S   0  0  0  0  0  0  0  0  0  0  0  0
   -0.7500   -1.2990    0.0000 C   0  0  0  0  0  0  0  0  0  0  0  0
    0.7500   -1.2990    0.0000 C   0  0  0  0  0  0  0  0  0  0  0  0
    1.5000    0.0000    0.0000 C   0  0  0  0  0  0  0  0  0  0  0  0
    0.7500    1.2990    0.0000 C   0  0  0  0  0  0  0  0  0  0  0  0
   -0.7500    1.2990    0.0000 C   0  0  0  0  0  0  0  0  0  0  0  0
   -1.5000    0.0000    0.0000 C   0  0  0  0  0  0  0  0  0  0  0  0
  1  2  3  0
  2  3  1  0
  3  4  2  0
  4  5  1  0
  5  6  1  0
  6  7  2  0
  6  8  1  0
  8  9  2  0
  9 10  1  0
 10 11  2  0
 11 12  1  0
 12 13  2  0
 13 14  1  0
  4 15  1  0
 15 16  1  0
 16 17  2  0
 17 18  1  0
 18 19  1  0
 19 20  1  0
 20 21  1  0
 17  3  1  0
 13  8  1  0
 21 16  1  0
M  END
>  <Compound_ID>  (523) 
CHEMBL234838

>  <Molecule Name>  (523) 
GW572738X

>  <Molecular Weight>  (523) 
300.36

>  <AlogP>  (523) 
3.89

>  <Smiles>  (523) 
N#Cc1c(NC(=O)c2ccccc2F)sc2c1CCCC2

>  <Standard Type>  (523) 
Inhibition

>  <Standard Relation>  (523) 
'='

>  <Standard Units>  (523) 
%

>  <Standard Value>  (523) 
0.42

>  <Assay ChEMBL ID>  (523) 
CHEMBL1962175

>  <Assay Description>  (523) 
GSK_PKIS: SYK mean inhibition at 1 uM [Nanosyn]

>  <BAO Format ID>  (523) 
BAO_0000357

>  <BAO Label>  (523) 
single protein format

>  <Assay Organism>  (523) 
None

>  <Target ChEMBL ID>  (523) 
CHEMBL2599

>  <Target Name>  (523) 
Tyrosine-protein kinase SYK

>  <Target Organism>  (523) 
Homo sapiens

>  <Target Type>  (523) 
SINGLE PROTEIN

>  <Document ChEMBL ID>  (523) 
CHEMBL1961873

>  <Source Description>  (523) 
GSK Published Kinase Inhibitor Set

>  <Document Journal>  (523) 
nan

>  <Document Year>  (523) 
nan

>  <Active>  (523) 
0.0

>  <bits>  (523) 
<rdkit.DataStructs.cDataStructs.ExplicitBitVect object at 0x00000193F33E8F20>

>  <Group>  (523) 
G2

$$$$

     RDKit          2D

 27 30  0  0  0  0  0  0  0  0999 V2000
    3.7500   -1.2990    0.0000 C   0  0  0  0  0  0  0  0  0  0  0  0
    3.0000    0.0000    0.0000 O   0  0  0  0  0  0  0  0  0  0  0  0
    1.5000    0.0000    0.0000 C   0  0  0  0  0  0  0  0  0  0  0  0
    0.7500   -1.2990    0.0000 C   0  0  0  0  0  0  0  0  0  0  0  0
   -0.7500   -1.2990    0.0000 C   0  0  0  0  0  0  0  0  0  0  0  0
   -1.5000    0.0000    0.0000 C   0  0  0  0  0  0  0  0  0  0  0  0
   -3.0000    0.0000    0.0000 N   0  0  0  0  0  0  0  0  0  0  0  0
   -3.7500    1.2990    0.0000 C   0  0  0  0  0  0  0  0  0  0  0  0
   -3.0000    2.5981    0.0000 N   0  0  0  0  0  0  0  0  0  0  0  0
   -1.5000    2.5981    0.0000 C   0  0  0  0  0  0  0  0  0  0  0  0
   -0.7500    3.8971    0.0000 N   0  0  0  0  0  0  0  0  0  0  0  0
   -1.5000    5.1962    0.0000 C   0  0  0  0  0  0  0  0  0  0  0  0
   -0.7500    6.4952    0.0000 C   0  0  0  0  0  0  0  0  0  0  0  0
   -1.5000    7.7942    0.0000 C   0  0  0  0  0  0  0  0  0  0  0  0
   -3.0000    7.7942    0.0000 C   0  0  0  0  0  0  0  0  0  0  0  0
   -3.7500    9.0933    0.0000 O   0  0  0  0  0  0  0  0  0  0  0  0
   -3.0000   10.3923    0.0000 C   0  0  0  0  0  0  0  0  0  0  0  0
   -3.7500   11.6913    0.0000 C   0  0  0  0  0  0  0  0  0  0  0  0
   -3.0000   12.9904    0.0000 C   0  0  0  0  0  0  0  0  0  0  0  0
   -3.7500   14.2894    0.0000 C   0  0  0  0  0  0  0  0  0  0  0  0
   -5.2500   14.2894    0.0000 C   0  0  0  0  0  0  0  0  0  0  0  0
   -6.0000   12.9904    0.0000 C   0  0  0  0  0  0  0  0  0  0  0  0
   -5.2500   11.6913    0.0000 C   0  0  0  0  0  0  0  0  0  0  0  0
   -3.7500    6.4952    0.0000 C   0  0  0  0  0  0  0  0  0  0  0  0
   -3.0000    5.1962    0.0000 C   0  0  0  0  0  0  0  0  0  0  0  0
   -0.7500    1.2990    0.0000 C   0  0  0  0  0  0  0  0  0  0  0  0
    0.7500    1.2990    0.0000 C   0  0  0  0  0  0  0  0  0  0  0  0
  1  2  1  0
  2  3  1  0
  3  4  2  0
  4  5  1  0
  5  6  2  0
  6  7  1  0
  7  8  2  0
  8  9  1  0
  9 10  2  0
 10 11  1  0
 11 12  1  0
 12 13  2  0
 13 14  1  0
 14 15  2  0
 15 16  1  0
 16 17  1  0
 17 18  1  0
 18 19  2  0
 19 20  1  0
 20 21  2  0
 21 22  1  0
 22 23  2  0
 15 24  1  0
 24 25  2  0
 10 26  1  0
 26 27  2  0
 27  3  1  0
 26  6  1  0
 25 12  1  0
 23 18  1  0
M  END
>  <Compound_ID>  (524) 
CHEMBL1909411

>  <Molecule Name>  (524) 
nan

>  <Molecular Weight>  (524) 
393.87

>  <AlogP>  (524) 
4.96

>  <Smiles>  (524) 
COc1ccc2ncnc(Nc3ccc(OCc4ccccc4)cc3)c2c1

>  <Standard Type>  (524) 
Inhibition

>  <Standard Relation>  (524) 
'='

>  <Standard Units>  (524) 
%

>  <Standard Value>  (524) 
-3.74

>  <Assay ChEMBL ID>  (524) 
CHEMBL1962174

>  <Assay Description>  (524) 
GSK_PKIS: SYK mean inhibition at 0.1 uM [Nanosyn]

>  <BAO Format ID>  (524) 
BAO_0000357

>  <BAO Label>  (524) 
single protein format

>  <Assay Organism>  (524) 
None

>  <Target ChEMBL ID>  (524) 
CHEMBL2599

>  <Target Name>  (524) 
Tyrosine-protein kinase SYK

>  <Target Organism>  (524) 
Homo sapiens

>  <Target Type>  (524) 
SINGLE PROTEIN

>  <Document ChEMBL ID>  (524) 
CHEMBL1961873

>  <Source Description>  (524) 
GSK Published Kinase Inhibitor Set

>  <Document Journal>  (524) 
nan

>  <Document Year>  (524) 
nan

>  <Active>  (524) 
0.0

>  <bits>  (524) 
<rdkit.DataStructs.cDataStructs.ExplicitBitVect object at 0x00000193F33EA180>

>  <Group>  (524) 
G2

$$$$

     RDKit          2D

 34 37  0  0  0  0  0  0  0  0999 V2000
   -2.9520   -4.6564    0.0000 C   0  0  0  0  0  0  0  0  0  0  0  0
   -2.6401   -3.1891    0.0000 C   0  0  0  0  0  0  0  0  0  0  0  0
   -3.7548   -2.1855    0.0000 C   0  0  0  0  0  0  0  0  0  0  0  0
   -1.2135   -2.7256    0.0000 N   0  0  0  0  0  0  0  0  0  0  0  0
   -0.0000   -3.6073    0.0000 N   0  0  0  0  0  0  0  0  0  0  0  0
    1.2135   -2.7256    0.0000 C   0  0  0  0  0  0  0  0  0  0  0  0
    2.6401   -3.1891    0.0000 C   0  0  0  0  0  0  0  0  0  0  0  0
    4.0667   -3.6527    0.0000 C   0  0  0  0  0  0  0  0  0  0  0  0
    5.4933   -4.1162    0.0000 C   0  0  0  0  0  0  0  0  0  0  0  0
    5.8051   -5.5834    0.0000 C   0  0  0  0  0  0  0  0  0  0  0  0
    7.2317   -6.0469    0.0000 C   0  0  0  0  0  0  0  0  0  0  0  0
    8.3464   -5.0433    0.0000 C   0  0  0  0  0  0  0  0  0  0  0  0
    8.0346   -3.5760    0.0000 C   0  0  0  0  0  0  0  0  0  0  0  0
    9.1493   -2.5723    0.0000 N   0  0  0  0  0  0  0  0  0  0  0  0
   10.5759   -3.0359    0.0000 C   0  0  0  0  0  0  0  0  0  0  0  0
   10.8878   -4.5031    0.0000 O   0  0  0  0  0  0  0  0  0  0  0  0
   11.6906   -2.0322    0.0000 C   0  0  0  0  0  0  0  0  0  0  0  0
   13.1172   -2.4957    0.0000 C   0  0  0  0  0  0  0  0  0  0  0  0
   14.2319   -1.4920    0.0000 C   0  0  0  0  0  0  0  0  0  0  0  0
   13.9200   -0.0248    0.0000 C   0  0  0  0  0  0  0  0  0  0  0  0
   12.4935    0.4388    0.0000 C   0  0  0  0  0  0  0  0  0  0  0  0
   12.1816    1.9060    0.0000 C   0  0  0  0  0  0  0  0  0  0  0  0
   11.8697    3.3732    0.0000 F   0  0  0  0  0  0  0  0  0  0  0  0
   13.6488    2.2178    0.0000 F   0  0  0  0  0  0  0  0  0  0  0  0
   10.7144    1.5941    0.0000 F   0  0  0  0  0  0  0  0  0  0  0  0
   11.3787   -0.5649    0.0000 C   0  0  0  0  0  0  0  0  0  0  0  0
    6.6080   -3.1125    0.0000 C   0  0  0  0  0  0  0  0  0  0  0  0
    0.7500   -1.2990    0.0000 C   0  0  0  0  0  0  0  0  0  0  0  0
    1.5000    0.0000    0.0000 C   0  0  0  0  0  0  0  0  0  0  0  0
    3.0000    0.0000    0.0000 N   0  0  0  0  0  0  0  0  0  0  0  0
    0.7500    1.2990    0.0000 N   0  0  0  0  0  0  0  0  0  0  0  0
   -0.7500    1.2990    0.0000 C   0  0  0  0  0  0  0  0  0  0  0  0
   -1.5000    0.0000    0.0000 N   0  0  0  0  0  0  0  0  0  0  0  0
   -0.7500   -1.2990    0.0000 C   0  0  0  0  0  0  0  0  0  0  0  0
  1  2  1  0
  2  3  1  0
  2  4  1  0
  4  5  1  0
  5  6  2  0
  6  7  1  0
  7  8  3  0
  8  9  1  0
  9 10  2  0
 10 11  1  0
 11 12  2  0
 12 13  1  0
 13 14  1  0
 14 15  1  0
 15 16  2  0
 15 17  1  0
 17 18  2  0
 18 19  1  0
 19 20  2  0
 20 21  1  0
 21 22  1  0
 22 23  1  0
 22 24  1  0
 22 25  1  0
 21 26  2  0
 13 27  2  0
  6 28  1  0
 28 29  2  0
 29 30  1  0
 29 31  1  0
 31 32  2  0
 32 33  1  0
 33 34  2  0
 34  4  1  0
 27  9  1  0
 34 28  1  0
 26 17  1  0
M  END
>  <Compound_ID>  (525) 
CHEMBL3736320

>  <Molecule Name>  (525) 
nan

>  <Molecular Weight>  (525) 
464.45

>  <AlogP>  (525) 
4.66

>  <Smiles>  (525) 
CC(C)n1nc(C#Cc2cccc(NC(=O)c3cccc(C(F)(F)F)c3)c2)c2c(N)ncnc21

>  <Standard Type>  (525) 
Inhibition

>  <Standard Relation>  (525) 
'='

>  <Standard Units>  (525) 
%

>  <Standard Value>  (525) 
-4.0

>  <Assay ChEMBL ID>  (525) 
CHEMBL4230234

>  <Assay Description>  (525) 
Inhibition of SYK (unknown origin) at 1 uM by mobility shift microfluidics platform based assay relative to control

>  <BAO Format ID>  (525) 
BAO_0000357

>  <BAO Label>  (525) 
single protein format

>  <Assay Organism>  (525) 
Homo sapiens

>  <Target ChEMBL ID>  (525) 
CHEMBL2599

>  <Target Name>  (525) 
Tyrosine-protein kinase SYK

>  <Target Organism>  (525) 
Homo sapiens

>  <Target Type>  (525) 
SINGLE PROTEIN

>  <Document ChEMBL ID>  (525) 
CHEMBL4229333

>  <Source Description>  (525) 
Scientific Literature

>  <Document Journal>  (525) 
Eur J Med Chem

>  <Document Year>  (525) 
2018.0

>  <Active>  (525) 
0.0

>  <bits>  (525) 
<rdkit.DataStructs.cDataStructs.ExplicitBitVect object at 0x00000193F33E9EE0>

>  <Group>  (525) 
G2

$$$$

     RDKit          2D

 29 33  0  0  0  0  0  0  0  0999 V2000
   -3.9955   -4.2382    0.0000 O   0  0  0  0  0  0  0  0  0  0  0  0
   -2.9918   -5.3529    0.0000 C   0  0  0  0  0  0  0  0  0  0  0  0
   -3.3037   -6.8202    0.0000 N   0  0  0  0  0  0  0  0  0  0  0  0
   -2.0046   -7.5702    0.0000 N   0  0  0  0  0  0  0  0  0  0  0  0
   -0.8899   -6.5665    0.0000 C   0  0  0  0  0  0  0  0  0  0  0  0
    0.5773   -6.8783    0.0000 C   0  0  0  0  0  0  0  0  0  0  0  0
    1.0409   -8.3049    0.0000 C   0  0  0  0  0  0  0  0  0  0  0  0
    2.5081   -8.6168    0.0000 C   0  0  0  0  0  0  0  0  0  0  0  0
    3.5118   -7.5021    0.0000 N   0  0  0  0  0  0  0  0  0  0  0  0
    3.0482   -6.0755    0.0000 C   0  0  0  0  0  0  0  0  0  0  0  0
    4.0519   -4.9608    0.0000 N   0  0  0  0  0  0  0  0  0  0  0  0
    5.5192   -5.2726    0.0000 C   0  0  0  0  0  0  0  0  0  0  0  0
    5.9827   -6.6992    0.0000 C   0  0  0  0  0  0  0  0  0  0  0  0
    7.4499   -7.0111    0.0000 C   0  0  0  0  0  0  0  0  0  0  0  0
    8.4536   -5.8964    0.0000 O   0  0  0  0  0  0  0  0  0  0  0  0
    7.9901   -4.4698    0.0000 C   0  0  0  0  0  0  0  0  0  0  0  0
    6.5229   -4.1579    0.0000 C   0  0  0  0  0  0  0  0  0  0  0  0
    1.5810   -5.7636    0.0000 C   0  0  0  0  0  0  0  0  0  0  0  0
   -1.5000   -5.1962    0.0000 N   0  0  0  0  0  0  0  0  0  0  0  0
   -0.7500   -3.8971    0.0000 C   0  0  0  0  0  0  0  0  0  0  0  0
    0.7500   -3.8971    0.0000 C   0  0  0  0  0  0  0  0  0  0  0  0
    1.5000   -2.5981    0.0000 C   0  0  0  0  0  0  0  0  0  0  0  0
    0.7500   -1.2990    0.0000 C   0  0  0  0  0  0  0  0  0  0  0  0
    1.5000    0.0000    0.0000 C   0  0  0  0  0  0  0  0  0  0  0  0
    0.7500    1.2990    0.0000 C   0  0  0  0  0  0  0  0  0  0  0  0
   -0.7500    1.2990    0.0000 C   0  0  0  0  0  0  0  0  0  0  0  0
   -1.5000    0.0000    0.0000 C   0  0  0  0  0  0  0  0  0  0  0  0
   -0.7500   -1.2990    0.0000 C   0  0  0  0  0  0  0  0  0  0  0  0
   -1.5000   -2.5981    0.0000 C   0  0  0  0  0  0  0  0  0  0  0  0
  1  2  2  0
  2  3  1  0
  3  4  1  0
  4  5  2  0
  5  6  1  0
  6  7  2  0
  7  8  1  0
  8  9  2  0
  9 10  1  0
 10 11  1  0
 11 12  1  0
 12 13  1  0
 13 14  1  0
 14 15  1  0
 15 16  1  0
 16 17  1  0
 10 18  2  0
  5 19  1  0
 19 20  1  0
 20 21  2  0
 21 22  1  0
 22 23  2  0
 23 24  1  0
 24 25  2  0
 25 26  1  0
 26 27  2  0
 27 28  1  0
 28 29  2  0
 19  2  1  0
 29 20  1  0
 18  6  1  0
 28 23  1  0
 17 12  1  0
M  END
>  <Compound_ID>  (526) 
CHEMBL1644620

>  <Molecule Name>  (526) 
nan

>  <Molecular Weight>  (526) 
387.44

>  <AlogP>  (526) 
3.37

>  <Smiles>  (526) 
O=c1[nH]nc(-c2ccnc(NC3CCOCC3)c2)n1-c1ccc2ccccc2c1

>  <Standard Type>  (526) 
Inhibition

>  <Standard Relation>  (526) 
'='

>  <Standard Units>  (526) 
%

>  <Standard Value>  (526) 
14.0

>  <Assay ChEMBL ID>  (526) 
CHEMBL1648824

>  <Assay Description>  (526) 
Inhibition of SYK at 10 uM after 60 mins by TR-FRET assay

>  <BAO Format ID>  (526) 
BAO_0000357

>  <BAO Label>  (526) 
single protein format

>  <Assay Organism>  (526) 
None

>  <Target ChEMBL ID>  (526) 
CHEMBL2599

>  <Target Name>  (526) 
Tyrosine-protein kinase SYK

>  <Target Organism>  (526) 
Homo sapiens

>  <Target Type>  (526) 
SINGLE PROTEIN

>  <Document ChEMBL ID>  (526) 
CHEMBL1641539

>  <Source Description>  (526) 
Scientific Literature

>  <Document Journal>  (526) 
Bioorg Med Chem Lett

>  <Document Year>  (526) 
2011.0

>  <Active>  (526) 
0.0

>  <bits>  (526) 
<rdkit.DataStructs.cDataStructs.ExplicitBitVect object at 0x00000193F33EA260>

>  <Group>  (526) 
G2

$$$$

     RDKit          2D

 40 43  0  0  0  0  0  0  0  0999 V2000
    3.7500   -1.2990    0.0000 C   0  0  0  0  0  0  0  0  0  0  0  0
    3.0000    0.0000    0.0000 O   0  0  0  0  0  0  0  0  0  0  0  0
    1.5000    0.0000    0.0000 C   0  0  0  0  0  0  0  0  0  0  0  0
    0.7500   -1.2990    0.0000 C   0  0  0  0  0  0  0  0  0  0  0  0
   -0.7500   -1.2990    0.0000 C   0  0  0  0  0  0  0  0  0  0  0  0
   -1.5000    0.0000    0.0000 C   0  0  0  0  0  0  0  0  0  0  0  0
   -3.0000    0.0000    0.0000 C   0  0  0  0  0  0  0  0  0  0  0  0
   -3.7500    1.2990    0.0000 N   0  0  0  0  0  0  0  0  0  0  0  0
   -5.2418    1.4558    0.0000 N   0  0  0  0  0  0  0  0  0  0  0  0
   -5.5537    2.9231    0.0000 C   0  0  0  0  0  0  0  0  0  0  0  0
   -4.2546    3.6731    0.0000 C   0  0  0  0  0  0  0  0  0  0  0  0
   -4.0978    5.1648    0.0000 N   0  0  0  0  0  0  0  0  0  0  0  0
   -2.7275    5.7749    0.0000 C   0  0  0  0  0  0  0  0  0  0  0  0
   -1.5140    4.8933    0.0000 O   0  0  0  0  0  0  0  0  0  0  0  0
   -2.5707    7.2667    0.0000 C   0  0  0  0  0  0  0  0  0  0  0  0
   -1.2004    7.8768    0.0000 C   0  0  0  0  0  0  0  0  0  0  0  0
   -1.0436    9.3686    0.0000 C   0  0  0  0  0  0  0  0  0  0  0  0
    0.3267    9.9787    0.0000 N   0  0  0  0  0  0  0  0  0  0  0  0
    1.5402    9.0970    0.0000 C   0  0  0  0  0  0  0  0  0  0  0  0
    1.3835    7.6053    0.0000 O   0  0  0  0  0  0  0  0  0  0  0  0
    2.9106    9.7071    0.0000 N   0  0  0  0  0  0  0  0  0  0  0  0
    4.1241    8.8255    0.0000 C   0  0  0  0  0  0  0  0  0  0  0  0
    3.9673    7.3337    0.0000 C   0  0  0  0  0  0  0  0  0  0  0  0
    5.1808    6.4520    0.0000 C   0  0  0  0  0  0  0  0  0  0  0  0
    6.5511    7.0621    0.0000 C   0  0  0  0  0  0  0  0  0  0  0  0
    7.7647    6.1804    0.0000 Cl  0  0  0  0  0  0  0  0  0  0  0  0
    6.7079    8.5539    0.0000 C   0  0  0  0  0  0  0  0  0  0  0  0
    8.0783    9.1640    0.0000 C   0  0  0  0  0  0  0  0  0  0  0  0
    9.4486    9.7741    0.0000 F   0  0  0  0  0  0  0  0  0  0  0  0
    7.4681   10.5343    0.0000 F   0  0  0  0  0  0  0  0  0  0  0  0
    8.6884    7.7937    0.0000 F   0  0  0  0  0  0  0  0  0  0  0  0
    5.4944    9.4356    0.0000 C   0  0  0  0  0  0  0  0  0  0  0  0
   -2.2571   10.2503    0.0000 C   0  0  0  0  0  0  0  0  0  0  0  0
   -3.6274    9.6402    0.0000 C   0  0  0  0  0  0  0  0  0  0  0  0
   -3.7842    8.1484    0.0000 C   0  0  0  0  0  0  0  0  0  0  0  0
   -5.1546    7.5383    0.0000 C   0  0  0  0  0  0  0  0  0  0  0  0
   -3.1399    2.6694    0.0000 C   0  0  0  0  0  0  0  0  0  0  0  0
   -1.6727    2.9812    0.0000 N   0  0  0  0  0  0  0  0  0  0  0  0
   -0.7500    1.2990    0.0000 C   0  0  0  0  0  0  0  0  0  0  0  0
    0.7500    1.2990    0.0000 C   0  0  0  0  0  0  0  0  0  0  0  0
  1  2  1  0
  2  3  1  0
  3  4  2  0
  4  5  1  0
  5  6  2  0
  6  7  1  0
  7  8  1  0
  8  9  1  0
  9 10  2  0
 10 11  1  0
 11 12  1  0
 12 13  1  0
 13 14  2  0
 13 15  1  0
 15 16  2  0
 16 17  1  0
 17 18  1  0
 18 19  1  0
 19 20  2  0
 19 21  1  0
 21 22  1  0
 22 23  2  0
 23 24  1  0
 24 25  2  0
 25 26  1  0
 25 27  1  0
 27 28  1  0
 28 29  1  0
 28 30  1  0
 28 31  1  0
 27 32  2  0
 17 33  2  0
 33 34  1  0
 34 35  2  0
 35 36  1  0
 11 37  2  0
 37 38  1  0
  6 39  1  0
 39 40  2  0
 40  3  1  0
 37  8  1  0
 35 15  1  0
 32 22  1  0
M  END
>  <Compound_ID>  (527) 
CHEMBL1684800

>  <Molecule Name>  (527) 
nan

>  <Molecular Weight>  (527) 
572.98

>  <AlogP>  (527) 
6.40

>  <Smiles>  (527) 
COc1ccc(Cn2ncc(NC(=O)c3cc(NC(=O)Nc4ccc(Cl)c(C(F)(F)F)c4)ccc3C)c2N)cc1

>  <Standard Type>  (527) 
Inhibition

>  <Standard Relation>  (527) 
'='

>  <Standard Units>  (527) 
%

>  <Standard Value>  (527) 
0.0

>  <Assay ChEMBL ID>  (527) 
CHEMBL1687349

>  <Assay Description>  (527) 
inhibition of SYK at 10 uM

>  <BAO Format ID>  (527) 
BAO_0000357

>  <BAO Label>  (527) 
single protein format

>  <Assay Organism>  (527) 
None

>  <Target ChEMBL ID>  (527) 
CHEMBL2599

>  <Target Name>  (527) 
Tyrosine-protein kinase SYK

>  <Target Organism>  (527) 
Homo sapiens

>  <Target Type>  (527) 
SINGLE PROTEIN

>  <Document ChEMBL ID>  (527) 
CHEMBL1681781

>  <Source Description>  (527) 
Scientific Literature

>  <Document Journal>  (527) 
Bioorg Med Chem

>  <Document Year>  (527) 
2011.0

>  <Active>  (527) 
0.0

>  <bits>  (527) 
<rdkit.DataStructs.cDataStructs.ExplicitBitVect object at 0x00000193F33E9690>

>  <Group>  (527) 
G2

$$$$

     RDKit          2D

 21 24  0  0  0  0  0  0  0  0999 V2000
   -4.6740   -7.4303    0.0000 C   0  0  0  0  0  0  0  0  0  0  0  0
   -3.3037   -6.8202    0.0000 N   0  0  0  0  0  0  0  0  0  0  0  0
   -2.9918   -5.3529    0.0000 N   0  0  0  0  0  0  0  0  0  0  0  0
   -1.5000   -5.1962    0.0000 C   0  0  0  0  0  0  0  0  0  0  0  0
   -0.7500   -3.8971    0.0000 C   0  0  0  0  0  0  0  0  0  0  0  0
    0.7500   -3.8971    0.0000 C   0  0  0  0  0  0  0  0  0  0  0  0
    1.5000   -2.5981    0.0000 C   0  0  0  0  0  0  0  0  0  0  0  0
    0.7500   -1.2990    0.0000 C   0  0  0  0  0  0  0  0  0  0  0  0
    1.5000    0.0000    0.0000 C   0  0  0  0  0  0  0  0  0  0  0  0
    0.7500    1.2990    0.0000 C   0  0  0  0  0  0  0  0  0  0  0  0
   -0.7500    1.2990    0.0000 C   0  0  0  0  0  0  0  0  0  0  0  0
   -1.5000    0.0000    0.0000 C   0  0  0  0  0  0  0  0  0  0  0  0
   -0.7500   -1.2990    0.0000 C   0  0  0  0  0  0  0  0  0  0  0  0
   -1.5000   -2.5981    0.0000 C   0  0  0  0  0  0  0  0  0  0  0  0
   -0.8899   -6.5665    0.0000 C   0  0  0  0  0  0  0  0  0  0  0  0
    0.5367   -7.0300    0.0000 C   0  0  0  0  0  0  0  0  0  0  0  0
    1.6514   -6.0263    0.0000 N   0  0  0  0  0  0  0  0  0  0  0  0
    0.8486   -8.4972    0.0000 N   0  0  0  0  0  0  0  0  0  0  0  0
   -0.2662   -9.5009    0.0000 C   0  0  0  0  0  0  0  0  0  0  0  0
   -1.6927   -9.0374    0.0000 N   0  0  0  0  0  0  0  0  0  0  0  0
   -2.0046   -7.5702    0.0000 C   0  0  0  0  0  0  0  0  0  0  0  0
  1  2  1  0
  2  3  1  0
  3  4  2  0
  4  5  1  0
  5  6  2  0
  6  7  1  0
  7  8  2  0
  8  9  1  0
  9 10  2  0
 10 11  1  0
 11 12  2  0
 12 13  1  0
 13 14  2  0
  4 15  1  0
 15 16  2  0
 16 17  1  0
 16 18  1  0
 18 19  2  0
 19 20  1  0
 20 21  2  0
 21  2  1  0
 14  5  1  0
 21 15  1  0
 13  8  1  0
M  END
>  <Compound_ID>  (528) 
CHEMBL1234815

>  <Molecule Name>  (528) 
nan

>  <Molecular Weight>  (528) 
275.31

>  <AlogP>  (528) 
2.77

>  <Smiles>  (528) 
Cn1nc(-c2ccc3ccccc3c2)c2c(N)ncnc21

>  <Standard Type>  (528) 
Inhibition

>  <Standard Relation>  (528) 
'='

>  <Standard Units>  (528) 
%

>  <Standard Value>  (528) 
3.0

>  <Assay ChEMBL ID>  (528) 
CHEMBL1244304

>  <Assay Description>  (528) 
Inhibition of SYK at 1 uM after 60 mins by FRET assay in presence of 10 uM ATP

>  <BAO Format ID>  (528) 
BAO_0000357

>  <BAO Label>  (528) 
single protein format

>  <Assay Organism>  (528) 
None

>  <Target ChEMBL ID>  (528) 
CHEMBL2599

>  <Target Name>  (528) 
Tyrosine-protein kinase SYK

>  <Target Organism>  (528) 
Homo sapiens

>  <Target Type>  (528) 
SINGLE PROTEIN

>  <Document ChEMBL ID>  (528) 
CHEMBL1240340

>  <Source Description>  (528) 
Scientific Literature

>  <Document Journal>  (528) 
Nat Chem Biol

>  <Document Year>  (528) 
2008.0

>  <Active>  (528) 
0.0

>  <bits>  (528) 
<rdkit.DataStructs.cDataStructs.ExplicitBitVect object at 0x00000193F33E8CF0>

>  <Group>  (528) 
G2

$$$$

     RDKit          2D

 23 26  0  0  0  0  0  0  0  0999 V2000
    3.0000   -7.7942    0.0000 C   0  0  0  0  0  0  0  0  0  0  0  0
    3.7500   -6.4952    0.0000 O   0  0  0  0  0  0  0  0  0  0  0  0
    3.0000   -5.1962    0.0000 C   0  0  0  0  0  0  0  0  0  0  0  0
    1.5000   -5.1962    0.0000 C   0  0  0  0  0  0  0  0  0  0  0  0
    0.7500   -3.8971    0.0000 C   0  0  0  0  0  0  0  0  0  0  0  0
    1.5000   -2.5981    0.0000 C   0  0  0  0  0  0  0  0  0  0  0  0
    0.7500   -1.2990    0.0000 C   0  0  0  0  0  0  0  0  0  0  0  0
    1.5000    0.0000    0.0000 C   0  0  0  0  0  0  0  0  0  0  0  0
    0.7500    1.2990    0.0000 C   0  0  0  0  0  0  0  0  0  0  0  0
   -0.7500    1.2990    0.0000 C   0  0  0  0  0  0  0  0  0  0  0  0
   -1.7537    2.4138    0.0000 C   0  0  0  0  0  0  0  0  0  0  0  0
   -1.4418    3.8810    0.0000 N   0  0  0  0  0  0  0  0  0  0  0  0
   -2.5565    4.8847    0.0000 C   0  0  0  0  0  0  0  0  0  0  0  0
   -3.9831    4.4211    0.0000 O   0  0  0  0  0  0  0  0  0  0  0  0
   -2.2447    6.3519    0.0000 C   0  0  0  0  0  0  0  0  0  0  0  0
   -2.7082    7.7785    0.0000 C   0  0  0  0  0  0  0  0  0  0  0  0
   -1.2410    7.4666    0.0000 C   0  0  0  0  0  0  0  0  0  0  0  0
   -3.1240    1.8037    0.0000 N   0  0  0  0  0  0  0  0  0  0  0  0
   -2.9672    0.3119    0.0000 N   0  0  0  0  0  0  0  0  0  0  0  0
   -1.5000    0.0000    0.0000 C   0  0  0  0  0  0  0  0  0  0  0  0
   -0.7500   -1.2990    0.0000 N   0  0  0  0  0  0  0  0  0  0  0  0
    3.0000   -2.5981    0.0000 C   0  0  0  0  0  0  0  0  0  0  0  0
    3.7500   -3.8971    0.0000 C   0  0  0  0  0  0  0  0  0  0  0  0
  1  2  1  0
  2  3  1  0
  3  4  2  0
  4  5  1  0
  5  6  2  0
  6  7  1  0
  7  8  2  0
  8  9  1  0
  9 10  2  0
 10 11  1  0
 11 12  1  0
 12 13  1  0
 13 14  2  0
 13 15  1  0
 15 16  1  0
 16 17  1  0
 11 18  2  0
 18 19  1  0
 19 20  1  0
 20 21  2  0
  6 22  1  0
 22 23  2  0
 23  3  1  0
 21  7  1  0
 20 10  1  0
 17 15  1  0
M  END
>  <Compound_ID>  (529) 
CHEMBL408732

>  <Molecule Name>  (529) 
nan

>  <Molecular Weight>  (529) 
308.34

>  <AlogP>  (529) 
2.98

>  <Smiles>  (529) 
COc1ccc(-c2ccc3c(NC(=O)C4CC4)n[nH]c3n2)cc1

>  <Standard Type>  (529) 
Inhibition

>  <Standard Relation>  (529) 
'='

>  <Standard Units>  (529) 
%

>  <Standard Value>  (529) 
-2.02

>  <Assay ChEMBL ID>  (529) 
CHEMBL1962175

>  <Assay Description>  (529) 
GSK_PKIS: SYK mean inhibition at 1 uM [Nanosyn]

>  <BAO Format ID>  (529) 
BAO_0000357

>  <BAO Label>  (529) 
single protein format

>  <Assay Organism>  (529) 
None

>  <Target ChEMBL ID>  (529) 
CHEMBL2599

>  <Target Name>  (529) 
Tyrosine-protein kinase SYK

>  <Target Organism>  (529) 
Homo sapiens

>  <Target Type>  (529) 
SINGLE PROTEIN

>  <Document ChEMBL ID>  (529) 
CHEMBL1961873

>  <Source Description>  (529) 
GSK Published Kinase Inhibitor Set

>  <Document Journal>  (529) 
nan

>  <Document Year>  (529) 
nan

>  <Active>  (529) 
0.0

>  <bits>  (529) 
<rdkit.DataStructs.cDataStructs.ExplicitBitVect object at 0x00000193F33E9150>

>  <Group>  (529) 
G2

$$$$

     RDKit          2D

 24 28  0  0  0  0  0  0  0  0999 V2000
   -0.5773   -4.2803    0.0000 C   0  0  0  0  0  0  0  0  0  0  0  0
    0.8899   -3.9684    0.0000 C   0  0  0  0  0  0  0  0  0  0  0  0
    2.0046   -4.9721    0.0000 N   0  0  0  0  0  0  0  0  0  0  0  0
    3.3037   -4.2221    0.0000 N   0  0  0  0  0  0  0  0  0  0  0  0
    2.9918   -2.7549    0.0000 C   0  0  0  0  0  0  0  0  0  0  0  0
    3.9955   -1.6402    0.0000 C   0  0  0  0  0  0  0  0  0  0  0  0
    4.3073   -0.1729    0.0000 C   0  0  0  0  0  0  0  0  0  0  0  0
    5.4221   -1.1766    0.0000 C   0  0  0  0  0  0  0  0  0  0  0  0
    1.5000   -2.5981    0.0000 C   0  0  0  0  0  0  0  0  0  0  0  0
    0.7500   -1.2990    0.0000 C   0  0  0  0  0  0  0  0  0  0  0  0
    1.5000    0.0000    0.0000 C   0  0  0  0  0  0  0  0  0  0  0  0
    0.7500    1.2990    0.0000 C   0  0  0  0  0  0  0  0  0  0  0  0
   -0.7500    1.2990    0.0000 C   0  0  0  0  0  0  0  0  0  0  0  0
   -1.7537    2.4138    0.0000 C   0  0  0  0  0  0  0  0  0  0  0  0
   -1.4418    3.8810    0.0000 N   0  0  0  0  0  0  0  0  0  0  0  0
   -2.5565    4.8847    0.0000 C   0  0  0  0  0  0  0  0  0  0  0  0
   -3.9831    4.4211    0.0000 O   0  0  0  0  0  0  0  0  0  0  0  0
   -2.2447    6.3519    0.0000 C   0  0  0  0  0  0  0  0  0  0  0  0
   -2.7082    7.7785    0.0000 C   0  0  0  0  0  0  0  0  0  0  0  0
   -1.2410    7.4666    0.0000 C   0  0  0  0  0  0  0  0  0  0  0  0
   -3.1240    1.8037    0.0000 N   0  0  0  0  0  0  0  0  0  0  0  0
   -2.9672    0.3119    0.0000 O   0  0  0  0  0  0  0  0  0  0  0  0
   -1.5000    0.0000    0.0000 C   0  0  0  0  0  0  0  0  0  0  0  0
   -0.7500   -1.2990    0.0000 C   0  0  0  0  0  0  0  0  0  0  0  0
  1  2  1  0
  2  3  1  0
  3  4  1  0
  4  5  2  0
  5  6  1  0
  6  7  1  0
  7  8  1  0
  5  9  1  0
  9 10  1  0
 10 11  2  0
 11 12  1  0
 12 13  2  0
 13 14  1  0
 14 15  1  0
 15 16  1  0
 16 17  2  0
 16 18  1  0
 18 19  1  0
 19 20  1  0
 14 21  2  0
 21 22  1  0
 22 23  1  0
 23 24  2  0
  9  2  2  0
 24 10  1  0
  8  6  1  0
 23 13  1  0
 20 18  1  0
M  END
>  <Compound_ID>  (530) 
CHEMBL4088455

>  <Molecule Name>  (530) 
nan

>  <Molecular Weight>  (530) 
322.37

>  <AlogP>  (530) 
3.75

>  <Smiles>  (530) 
Cc1[nH]nc(C2CC2)c1-c1ccc2c(NC(=O)C3CC3)noc2c1

>  <Standard Type>  (530) 
Inhibition

>  <Standard Relation>  (530) 
'='

>  <Standard Units>  (530) 
%

>  <Standard Value>  (530) 
0.7

>  <Assay ChEMBL ID>  (530) 
CHEMBL4057607

>  <Assay Description>  (530) 
Inhibition of SYK (unknown origin) at 0.49 uM relative to control

>  <BAO Format ID>  (530) 
BAO_0000357

>  <BAO Label>  (530) 
single protein format

>  <Assay Organism>  (530) 
Homo sapiens

>  <Target ChEMBL ID>  (530) 
CHEMBL2599

>  <Target Name>  (530) 
Tyrosine-protein kinase SYK

>  <Target Organism>  (530) 
Homo sapiens

>  <Target Type>  (530) 
SINGLE PROTEIN

>  <Document ChEMBL ID>  (530) 
CHEMBL4052759

>  <Source Description>  (530) 
Scientific Literature

>  <Document Journal>  (530) 
Bioorg Med Chem Lett

>  <Document Year>  (530) 
2017.0

>  <Active>  (530) 
0.0

>  <bits>  (530) 
<rdkit.DataStructs.cDataStructs.ExplicitBitVect object at 0x00000193F33E93F0>

>  <Group>  (530) 
G2

$$$$

     RDKit          2D

 39 43  0  0  0  0  0  0  0  0999 V2000
   -1.9635   -6.6227    0.0000 C   0  0  0  0  0  0  0  0  0  0  0  0
   -1.2135   -5.3237    0.0000 C   0  0  0  0  0  0  0  0  0  0  0  0
   -2.5838   -4.7136    0.0000 C   0  0  0  0  0  0  0  0  0  0  0  0
   -0.0000   -6.2054    0.0000 C   0  0  0  0  0  0  0  0  0  0  0  0
   -0.0000   -7.7054    0.0000 O   0  0  0  0  0  0  0  0  0  0  0  0
    1.2135   -5.3237    0.0000 N   0  0  0  0  0  0  0  0  0  0  0  0
    0.7500   -3.8971    0.0000 C   0  0  0  0  0  0  0  0  0  0  0  0
    1.5000   -2.5981    0.0000 C   0  0  0  0  0  0  0  0  0  0  0  0
    0.7500   -1.2990    0.0000 C   0  0  0  0  0  0  0  0  0  0  0  0
    1.5000    0.0000    0.0000 N   0  0  0  0  0  0  0  0  0  0  0  0
    0.7500    1.2990    0.0000 C   0  0  0  0  0  0  0  0  0  0  0  0
   -0.7500    1.2990    0.0000 C   0  0  0  0  0  0  0  0  0  0  0  0
   -1.5000    0.0000    0.0000 C   0  0  0  0  0  0  0  0  0  0  0  0
   -3.0000    0.0000    0.0000 O   0  0  0  0  0  0  0  0  0  0  0  0
   -3.7500    1.2990    0.0000 C   0  0  0  0  0  0  0  0  0  0  0  0
   -3.0000    2.5981    0.0000 C   0  0  0  0  0  0  0  0  0  0  0  0
   -3.7500    3.8971    0.0000 C   0  0  0  0  0  0  0  0  0  0  0  0
   -5.2500    3.8971    0.0000 C   0  0  0  0  0  0  0  0  0  0  0  0
   -6.0000    5.1962    0.0000 N   0  0  0  0  0  0  0  0  0  0  0  0
   -5.2500    6.4952    0.0000 C   0  0  0  0  0  0  0  0  0  0  0  0
   -3.7500    6.4952    0.0000 O   0  0  0  0  0  0  0  0  0  0  0  0
   -6.0000    7.7942    0.0000 N   0  0  0  0  0  0  0  0  0  0  0  0
   -5.2500    9.0933    0.0000 C   0  0  0  0  0  0  0  0  0  0  0  0
   -3.7500    9.0933    0.0000 C   0  0  0  0  0  0  0  0  0  0  0  0
   -3.0000   10.3923    0.0000 C   0  0  0  0  0  0  0  0  0  0  0  0
   -3.7500   11.6913    0.0000 C   0  0  0  0  0  0  0  0  0  0  0  0
   -3.0000   12.9904    0.0000 F   0  0  0  0  0  0  0  0  0  0  0  0
   -5.2500   11.6913    0.0000 C   0  0  0  0  0  0  0  0  0  0  0  0
   -6.0000   12.9904    0.0000 C   0  0  0  0  0  0  0  0  0  0  0  0
   -6.7500   14.2894    0.0000 F   0  0  0  0  0  0  0  0  0  0  0  0
   -7.2990   12.2404    0.0000 F   0  0  0  0  0  0  0  0  0  0  0  0
   -4.7010   13.7404    0.0000 F   0  0  0  0  0  0  0  0  0  0  0  0
   -6.0000   10.3923    0.0000 C   0  0  0  0  0  0  0  0  0  0  0  0
   -6.0000    2.5981    0.0000 C   0  0  0  0  0  0  0  0  0  0  0  0
   -5.2500    1.2990    0.0000 C   0  0  0  0  0  0  0  0  0  0  0  0
   -6.0000    0.0000    0.0000 Cl  0  0  0  0  0  0  0  0  0  0  0  0
   -0.7500   -1.2990    0.0000 C   0  0  0  0  0  0  0  0  0  0  0  0
   -1.5000   -2.5981    0.0000 C   0  0  0  0  0  0  0  0  0  0  0  0
   -0.7500   -3.8971    0.0000 C   0  0  0  0  0  0  0  0  0  0  0  0
  1  2  1  0
  2  3  1  0
  2  4  1  0
  4  5  2  0
  4  6  1  0
  6  7  1  0
  7  8  2  0
  8  9  1  0
  9 10  2  0
 10 11  1  0
 11 12  2  0
 12 13  1  0
 13 14  1  0
 14 15  1  0
 15 16  2  0
 16 17  1  0
 17 18  2  0
 18 19  1  0
 19 20  1  0
 20 21  2  0
 20 22  1  0
 22 23  1  0
 23 24  2  0
 24 25  1  0
 25 26  2  0
 26 27  1  0
 26 28  1  0
 28 29  1  0
 29 30  1  0
 29 31  1  0
 29 32  1  0
 28 33  2  0
 18 34  1  0
 34 35  2  0
 35 36  1  0
 13 37  2  0
 37 38  1  0
 38 39  2  0
 39  2  1  0
 39  7  1  0
 37  9  1  0
 35 15  1  0
 33 23  1  0
M  END
>  <Compound_ID>  (531) 
CHEMBL3218350

>  <Molecule Name>  (531) 
nan

>  <Molecular Weight>  (531) 
558.92

>  <AlogP>  (531) 
7.71

>  <Smiles>  (531) 
CC1(C)C(=O)Nc2cc3nccc(Oc4ccc(NC(=O)Nc5ccc(F)c(C(F)(F)F)c5)cc4Cl)c3cc21

>  <Standard Type>  (531) 
Inhibition

>  <Standard Relation>  (531) 
'='

>  <Standard Units>  (531) 
%

>  <Standard Value>  (531) 
15.0

>  <Assay ChEMBL ID>  (531) 
CHEMBL3226034

>  <Assay Description>  (531) 
Inhibition of SYK (unknown origin) at 10 uM

>  <BAO Format ID>  (531) 
BAO_0000357

>  <BAO Label>  (531) 
single protein format

>  <Assay Organism>  (531) 
Homo sapiens

>  <Target ChEMBL ID>  (531) 
CHEMBL2599

>  <Target Name>  (531) 
Tyrosine-protein kinase SYK

>  <Target Organism>  (531) 
Homo sapiens

>  <Target Type>  (531) 
SINGLE PROTEIN

>  <Document ChEMBL ID>  (531) 
CHEMBL3217507

>  <Source Description>  (531) 
Scientific Literature

>  <Document Journal>  (531) 
Medchemcomm

>  <Document Year>  (531) 
2013.0

>  <Active>  (531) 
0.0

>  <bits>  (531) 
<rdkit.DataStructs.cDataStructs.ExplicitBitVect object at 0x00000193F33EA960>

>  <Group>  (531) 
G2

$$$$

     RDKit          2D

 28 31  0  0  0  0  0  0  0  0999 V2000
    2.1306   -5.7367    0.0000 C   0  0  0  0  0  0  0  0  0  0  0  0
    0.7040   -6.2002    0.0000 O   0  0  0  0  0  0  0  0  0  0  0  0
    0.3922   -7.6675    0.0000 C   0  0  0  0  0  0  0  0  0  0  0  0
    1.5069   -8.6712    0.0000 C   0  0  0  0  0  0  0  0  0  0  0  0
    1.1950  -10.1384    0.0000 C   0  0  0  0  0  0  0  0  0  0  0  0
   -0.2316  -10.6019    0.0000 C   0  0  0  0  0  0  0  0  0  0  0  0
   -1.3463   -9.5982    0.0000 C   0  0  0  0  0  0  0  0  0  0  0  0
   -1.0344   -8.1310    0.0000 C   0  0  0  0  0  0  0  0  0  0  0  0
   -2.1491   -7.1273    0.0000 C   0  0  0  0  0  0  0  0  0  0  0  0
   -1.8373   -5.6601    0.0000 C   0  0  0  0  0  0  0  0  0  0  0  0
   -2.9520   -4.6564    0.0000 C   0  0  0  0  0  0  0  0  0  0  0  0
   -2.6401   -3.1891    0.0000 C   0  0  0  0  0  0  0  0  0  0  0  0
   -1.2135   -2.7256    0.0000 C   0  0  0  0  0  0  0  0  0  0  0  0
   -0.0000   -3.6073    0.0000 C   0  0  0  0  0  0  0  0  0  0  0  0
    0.0000   -5.1073    0.0000 O   0  0  0  0  0  0  0  0  0  0  0  0
    1.2135   -2.7256    0.0000 N   0  0  0  0  0  0  0  0  0  0  0  0
    0.7500   -1.2990    0.0000 C   0  0  0  0  0  0  0  0  0  0  0  0
    1.5000    0.0000    0.0000 N   0  0  0  0  0  0  0  0  0  0  0  0
    0.7500    1.2990    0.0000 C   0  0  0  0  0  0  0  0  0  0  0  0
   -0.7500    1.2990    0.0000 C   0  0  0  0  0  0  0  0  0  0  0  0
   -1.5000    2.5981    0.0000 Br  0  0  0  0  0  0  0  0  0  0  0  0
   -1.5000    0.0000    0.0000 C   0  0  0  0  0  0  0  0  0  0  0  0
   -0.7500   -1.2990    0.0000 C   0  0  0  0  0  0  0  0  0  0  0  0
   -4.3786   -5.1199    0.0000 C   0  0  0  0  0  0  0  0  0  0  0  0
   -4.6904   -6.5871    0.0000 C   0  0  0  0  0  0  0  0  0  0  0  0
   -6.1170   -7.0506    0.0000 Br  0  0  0  0  0  0  0  0  0  0  0  0
   -3.5757   -7.5908    0.0000 C   0  0  0  0  0  0  0  0  0  0  0  0
   -3.8876   -9.0580    0.0000 O   0  0  0  0  0  0  0  0  0  0  0  0
  1  2  1  0
  2  3  1  0
  3  4  2  0
  4  5  1  0
  5  6  2  0
  6  7  1  0
  7  8  2  0
  8  9  1  0
  9 10  2  0
 10 11  1  0
 11 12  1  0
 12 13  2  0
 13 14  1  0
 14 15  2  0
 14 16  1  0
 16 17  1  0
 17 18  2  0
 18 19  1  0
 19 20  2  0
 20 21  1  0
 20 22  1  0
 22 23  2  0
 11 24  2  0
 24 25  1  0
 25 26  1  0
 25 27  2  0
 27 28  1  0
  8  3  1  0
 27  9  1  0
 23 13  1  0
 23 17  1  0
M  END
>  <Compound_ID>  (532) 
CHEMBL176857

>  <Molecule Name>  (532) 
GW442130X

>  <Molecular Weight>  (532) 
502.16

>  <AlogP>  (532) 
5.48

>  <Smiles>  (532) 
COc1ccccc1-c1cc(/C=C2\C(=O)Nc3ncc(Br)cc32)cc(Br)c1O

>  <Standard Type>  (532) 
Inhibition

>  <Standard Relation>  (532) 
'='

>  <Standard Units>  (532) 
%

>  <Standard Value>  (532) 
-0.96

>  <Assay ChEMBL ID>  (532) 
CHEMBL1962175

>  <Assay Description>  (532) 
GSK_PKIS: SYK mean inhibition at 1 uM [Nanosyn]

>  <BAO Format ID>  (532) 
BAO_0000357

>  <BAO Label>  (532) 
single protein format

>  <Assay Organism>  (532) 
None

>  <Target ChEMBL ID>  (532) 
CHEMBL2599

>  <Target Name>  (532) 
Tyrosine-protein kinase SYK

>  <Target Organism>  (532) 
Homo sapiens

>  <Target Type>  (532) 
SINGLE PROTEIN

>  <Document ChEMBL ID>  (532) 
CHEMBL1961873

>  <Source Description>  (532) 
GSK Published Kinase Inhibitor Set

>  <Document Journal>  (532) 
nan

>  <Document Year>  (532) 
nan

>  <Active>  (532) 
0.0

>  <bits>  (532) 
<rdkit.DataStructs.cDataStructs.ExplicitBitVect object at 0x00000193F33EAC00>

>  <Group>  (532) 
G2

$$$$

     RDKit          2D

 21 23  0  0  0  0  0  0  0  0999 V2000
   -4.6904   -6.5871    0.0000 C   0  0  0  0  0  0  0  0  0  0  0  0
   -4.3786   -5.1199    0.0000 C   0  0  0  0  0  0  0  0  0  0  0  0
   -2.9520   -4.6564    0.0000 N   0  0  0  0  0  0  0  0  0  0  0  0
   -2.6401   -3.1891    0.0000 C   0  0  0  0  0  0  0  0  0  0  0  0
   -3.7548   -2.1855    0.0000 O   0  0  0  0  0  0  0  0  0  0  0  0
   -1.2135   -2.7256    0.0000 C   0  0  0  0  0  0  0  0  0  0  0  0
   -0.0000   -3.6073    0.0000 C   0  0  0  0  0  0  0  0  0  0  0  0
    1.2135   -2.7256    0.0000 N   0  0  0  0  0  0  0  0  0  0  0  0
    0.7500   -1.2990    0.0000 C   0  0  0  0  0  0  0  0  0  0  0  0
    1.5000    0.0000    0.0000 N   0  0  0  0  0  0  0  0  0  0  0  0
    0.7500    1.2990    0.0000 C   0  0  0  0  0  0  0  0  0  0  0  0
   -0.7500    1.2990    0.0000 C   0  0  0  0  0  0  0  0  0  0  0  0
   -1.5000    2.5981    0.0000 C   0  0  0  0  0  0  0  0  0  0  0  0
   -2.7990    3.3481    0.0000 C   0  0  0  0  0  0  0  0  0  0  0  0
   -1.5000    4.0981    0.0000 C   0  0  0  0  0  0  0  0  0  0  0  0
   -1.5000    0.0000    0.0000 N   0  0  0  0  0  0  0  0  0  0  0  0
   -0.7500   -1.2990    0.0000 C   0  0  0  0  0  0  0  0  0  0  0  0
   -5.4933   -4.1162    0.0000 C   0  0  0  0  0  0  0  0  0  0  0  0
   -4.4896   -3.0015    0.0000 C   0  0  0  0  0  0  0  0  0  0  0  0
   -6.4970   -5.2309    0.0000 C   0  0  0  0  0  0  0  0  0  0  0  0
   -6.6080   -3.1125    0.0000 O   0  0  0  0  0  0  0  0  0  0  0  0
  2  1  1  1
  2  3  1  0
  3  4  1  0
  4  5  2  0
  4  6  1  0
  6  7  2  0
  7  8  1  0
  8  9  1  0
  9 10  2  0
 10 11  1  0
 11 12  2  0
 12 13  1  0
 13 14  1  0
 14 15  1  0
 12 16  1  0
 16 17  2  0
  2 18  1  0
 18 19  1  0
 18 20  1  0
 18 21  1  0
 17  6  1  0
 17  9  1  0
 15 13  1  0
M  END
>  <Compound_ID>  (533) 
CHEMBL2325904

>  <Molecule Name>  (533) 
nan

>  <Molecular Weight>  (533) 
288.35

>  <AlogP>  (533) 
1.72

>  <Smiles>  (533) 
C[C@H](NC(=O)c1c[nH]c2ncc(C3CC3)nc12)C(C)(C)O

>  <Standard Type>  (533) 
Inhibition

>  <Standard Relation>  (533) 
'='

>  <Standard Units>  (533) 
%

>  <Standard Value>  (533) 
14.0

>  <Assay ChEMBL ID>  (533) 
CHEMBL2329515

>  <Assay Description>  (533) 
Inhibition of SYK (unknown origin) at 10 uM

>  <BAO Format ID>  (533) 
BAO_0000357

>  <BAO Label>  (533) 
single protein format

>  <Assay Organism>  (533) 
Homo sapiens

>  <Target ChEMBL ID>  (533) 
CHEMBL2599

>  <Target Name>  (533) 
Tyrosine-protein kinase SYK

>  <Target Organism>  (533) 
Homo sapiens

>  <Target Type>  (533) 
SINGLE PROTEIN

>  <Document ChEMBL ID>  (533) 
CHEMBL2321829

>  <Source Description>  (533) 
Scientific Literature

>  <Document Journal>  (533) 
J Med Chem

>  <Document Year>  (533) 
2013.0

>  <Active>  (533) 
0.0

>  <bits>  (533) 
<rdkit.DataStructs.cDataStructs.ExplicitBitVect object at 0x00000193F33EA110>

>  <Group>  (533) 
G2

$$$$

     RDKit          2D

 33 37  0  0  0  0  0  0  0  0999 V2000
   -5.0023   -8.0543    0.0000 N   0  0  0  0  0  0  0  0  0  0  0  0
   -4.6904   -6.5871    0.0000 S   0  0  0  0  0  0  0  0  0  0  0  0
   -6.1577   -6.2752    0.0000 O   0  0  0  0  0  0  0  0  0  0  0  0
   -3.2232   -6.8990    0.0000 O   0  0  0  0  0  0  0  0  0  0  0  0
   -4.3786   -5.1199    0.0000 C   0  0  0  0  0  0  0  0  0  0  0  0
   -5.4933   -4.1162    0.0000 C   0  0  0  0  0  0  0  0  0  0  0  0
   -5.1814   -2.6490    0.0000 C   0  0  0  0  0  0  0  0  0  0  0  0
   -3.7548   -2.1855    0.0000 C   0  0  0  0  0  0  0  0  0  0  0  0
   -2.6401   -3.1891    0.0000 C   0  0  0  0  0  0  0  0  0  0  0  0
   -1.2135   -2.7256    0.0000 C   0  0  0  0  0  0  0  0  0  0  0  0
   -0.0000   -3.6073    0.0000 N   0  0  0  0  0  0  0  0  0  0  0  0
    1.2135   -2.7256    0.0000 N   0  0  0  0  0  0  0  0  0  0  0  0
    0.7500   -1.2990    0.0000 C   0  0  0  0  0  0  0  0  0  0  0  0
    1.5000    0.0000    0.0000 C   0  0  0  0  0  0  0  0  0  0  0  0
    0.7500    1.2990    0.0000 C   0  0  0  0  0  0  0  0  0  0  0  0
   -0.7500    1.2990    0.0000 C   0  0  0  0  0  0  0  0  0  0  0  0
   -1.5000    2.5981    0.0000 N   0  0  0  0  0  0  0  0  0  0  0  0
   -0.7500    3.8971    0.0000 C   0  0  0  0  0  0  0  0  0  0  0  0
    0.7500    3.8971    0.0000 O   0  0  0  0  0  0  0  0  0  0  0  0
   -1.5000    5.1962    0.0000 C   0  0  0  0  0  0  0  0  0  0  0  0
   -0.7500    6.4952    0.0000 C   0  0  0  0  0  0  0  0  0  0  0  0
   -1.3601    7.8655    0.0000 C   0  0  0  0  0  0  0  0  0  0  0  0
   -0.2454    8.8692    0.0000 C   0  0  0  0  0  0  0  0  0  0  0  0
    1.0537    8.1192    0.0000 S   0  0  0  0  0  0  0  0  0  0  0  0
    0.7418    6.6520    0.0000 C   0  0  0  0  0  0  0  0  0  0  0  0
   -3.0000    5.1962    0.0000 N   0  0  0  0  0  0  0  0  0  0  0  0
   -3.8817    3.9826    0.0000 C   0  0  0  0  0  0  0  0  0  0  0  0
   -5.3083    4.4462    0.0000 C   0  0  0  0  0  0  0  0  0  0  0  0
   -5.3083    5.9462    0.0000 C   0  0  0  0  0  0  0  0  0  0  0  0
   -3.8817    6.4097    0.0000 C   0  0  0  0  0  0  0  0  0  0  0  0
   -1.5000    0.0000    0.0000 C   0  0  0  0  0  0  0  0  0  0  0  0
   -0.7500   -1.2990    0.0000 C   0  0  0  0  0  0  0  0  0  0  0  0
   -2.9520   -4.6564    0.0000 C   0  0  0  0  0  0  0  0  0  0  0  0
  1  2  1  0
  2  3  2  0
  2  4  2  0
  2  5  1  0
  5  6  2  0
  6  7  1  0
  7  8  2  0
  8  9  1  0
  9 10  1  0
 10 11  2  0
 11 12  1  0
 12 13  1  0
 13 14  2  0
 14 15  1  0
 15 16  2  0
 16 17  1  0
 17 18  1  0
 18 19  2  0
 18 20  1  0
 20 21  1  0
 21 22  1  0
 22 23  2  0
 23 24  1  0
 24 25  1  0
 20 26  1  0
 26 27  1  0
 27 28  1  0
 28 29  1  0
 29 30  1  0
 16 31  1  0
 31 32  2  0
  9 33  2  0
 33  5  1  0
 32 10  1  0
 32 13  1  0
 25 21  2  0
 30 26  1  0
M  END
>  <Compound_ID>  (534) 
CHEMBL3330410

>  <Molecule Name>  (534) 
nan

>  <Molecular Weight>  (534) 
481.6

>  <AlogP>  (534) 
3.71

>  <Smiles>  (534) 
NS(=O)(=O)c1cccc(-c2n[nH]c3ccc(NC(=O)C(c4ccsc4)N4CCCC4)cc23)c1

>  <Standard Type>  (534) 
Inhibition

>  <Standard Relation>  (534) 
'='

>  <Standard Units>  (534) 
%

>  <Standard Value>  (534) 
-3.0

>  <Assay ChEMBL ID>  (534) 
CHEMBL3369118

>  <Assay Description>  (534) 
Inhibition of human Syk at 1 uM by radiometric Assay

>  <BAO Format ID>  (534) 
BAO_0000357

>  <BAO Label>  (534) 
single protein format

>  <Assay Organism>  (534) 
Homo sapiens

>  <Target ChEMBL ID>  (534) 
CHEMBL2599

>  <Target Name>  (534) 
Tyrosine-protein kinase SYK

>  <Target Organism>  (534) 
Homo sapiens

>  <Target Type>  (534) 
SINGLE PROTEIN

>  <Document ChEMBL ID>  (534) 
CHEMBL3352261

>  <Source Description>  (534) 
Scientific Literature

>  <Document Journal>  (534) 
Bioorg Med Chem

>  <Document Year>  (534) 
2014.0

>  <Active>  (534) 
0.0

>  <bits>  (534) 
<rdkit.DataStructs.cDataStructs.ExplicitBitVect object at 0x00000193F33EBDF0>

>  <Group>  (534) 
G2

$$$$

     RDKit          2D

 38 42  0  0  0  0  0  0  0  0999 V2000
   -1.5696   16.9661    0.0000 C   0  0  0  0  0  0  0  0  0  0  0  0
   -1.8815   15.4989    0.0000 C   0  0  0  0  0  0  0  0  0  0  0  0
   -0.7668   14.4952    0.0000 C   0  0  0  0  0  0  0  0  0  0  0  0
   -1.0786   13.0279    0.0000 N   0  0  0  0  0  0  0  0  0  0  0  0
   -2.5052   12.5644    0.0000 C   0  0  0  0  0  0  0  0  0  0  0  0
   -2.8171   11.0972    0.0000 C   0  0  0  0  0  0  0  0  0  0  0  0
   -1.7024   10.0935    0.0000 C   0  0  0  0  0  0  0  0  0  0  0  0
   -2.0143    8.6263    0.0000 C   0  0  0  0  0  0  0  0  0  0  0  0
   -0.8995    7.6226    0.0000 C   0  0  0  0  0  0  0  0  0  0  0  0
   -1.2114    6.1554    0.0000 C   0  0  0  0  0  0  0  0  0  0  0  0
   -2.6380    5.6918    0.0000 C   0  0  0  0  0  0  0  0  0  0  0  0
   -2.9499    4.2246    0.0000 N   0  0  0  0  0  0  0  0  0  0  0  0
   -1.8351    3.2209    0.0000 C   0  0  0  0  0  0  0  0  0  0  0  0
   -0.4086    3.6844    0.0000 N   0  0  0  0  0  0  0  0  0  0  0  0
    0.7062    2.6807    0.0000 C   0  0  0  0  0  0  0  0  0  0  0  0
    2.1328    3.1443    0.0000 N   0  0  0  0  0  0  0  0  0  0  0  0
    2.4446    4.6115    0.0000 C   0  0  0  0  0  0  0  0  0  0  0  0
    1.3299    5.6152    0.0000 C   0  0  0  0  0  0  0  0  0  0  0  0
    1.6418    7.0824    0.0000 C   0  0  0  0  0  0  0  0  0  0  0  0
    0.5271    8.0861    0.0000 F   0  0  0  0  0  0  0  0  0  0  0  0
    3.0684    7.5459    0.0000 C   0  0  0  0  0  0  0  0  0  0  0  0
    4.1831    6.5422    0.0000 C   0  0  0  0  0  0  0  0  0  0  0  0
    3.8712    5.0750    0.0000 C   0  0  0  0  0  0  0  0  0  0  0  0
    4.9859    4.0713    0.0000 C   0  0  0  0  0  0  0  0  0  0  0  0
    6.4125    4.5348    0.0000 N   0  0  0  0  0  0  0  0  0  0  0  0
    4.6741    2.6041    0.0000 O   0  0  0  0  0  0  0  0  0  0  0  0
    0.3943    1.2135    0.0000 C   0  0  0  0  0  0  0  0  0  0  0  0
    1.2760    0.0000    0.0000 C   0  0  0  0  0  0  0  0  0  0  0  0
    0.3943   -1.2135    0.0000 C   0  0  0  0  0  0  0  0  0  0  0  0
   -1.0323   -0.7500    0.0000 N   0  0  0  0  0  0  0  0  0  0  0  0
   -1.0323    0.7500    0.0000 C   0  0  0  0  0  0  0  0  0  0  0  0
   -2.1470    1.7537    0.0000 N   0  0  0  0  0  0  0  0  0  0  0  0
   -3.7527    6.6955    0.0000 C   0  0  0  0  0  0  0  0  0  0  0  0
   -5.1793    6.2320    0.0000 O   0  0  0  0  0  0  0  0  0  0  0  0
   -5.4912    4.7648    0.0000 C   0  0  0  0  0  0  0  0  0  0  0  0
   -3.4408    8.1628    0.0000 C   0  0  0  0  0  0  0  0  0  0  0  0
   -0.2758   10.5570    0.0000 C   0  0  0  0  0  0  0  0  0  0  0  0
    0.0361   12.0242    0.0000 C   0  0  0  0  0  0  0  0  0  0  0  0
  1  2  1  0
  2  3  1  0
  3  4  1  0
  4  5  1  0
  5  6  1  0
  6  7  1  0
  7  8  1  0
  8  9  2  0
  9 10  1  0
 10 11  2  0
 11 12  1  0
 12 13  1  0
 13 14  2  0
 14 15  1  0
 15 16  1  0
 16 17  1  0
 17 18  2  0
 18 19  1  0
 19 20  1  0
 19 21  2  0
 21 22  1  0
 22 23  2  0
 23 24  1  0
 24 25  1  0
 24 26  2  0
 15 27  2  0
 27 28  1  0
 28 29  2  0
 29 30  1  0
 30 31  1  0
 31 32  2  0
 11 33  1  0
 33 34  1  0
 34 35  1  0
 33 36  2  0
  7 37  1  0
 37 38  1  0
 38  4  1  0
 36  8  1  0
 32 13  1  0
 23 17  1  0
 31 27  1  0
M  END
>  <Compound_ID>  (535) 
CHEMBL476259

>  <Molecule Name>  (535) 
GSK-1326255A

>  <Molecular Weight>  (535) 
517.61

>  <AlogP>  (535) 
5.28

>  <Smiles>  (535) 
CCCN1CCC(c2ccc(Nc3nc(Nc4cc(F)ccc4C(N)=O)c4cc[nH]c4n3)c(OC)c2)CC1

>  <Standard Type>  (535) 
Inhibition

>  <Standard Relation>  (535) 
'='

>  <Standard Units>  (535) 
%

>  <Standard Value>  (535) 
-9.2

>  <Assay ChEMBL ID>  (535) 
CHEMBL1962174

>  <Assay Description>  (535) 
GSK_PKIS: SYK mean inhibition at 0.1 uM [Nanosyn]

>  <BAO Format ID>  (535) 
BAO_0000357

>  <BAO Label>  (535) 
single protein format

>  <Assay Organism>  (535) 
None

>  <Target ChEMBL ID>  (535) 
CHEMBL2599

>  <Target Name>  (535) 
Tyrosine-protein kinase SYK

>  <Target Organism>  (535) 
Homo sapiens

>  <Target Type>  (535) 
SINGLE PROTEIN

>  <Document ChEMBL ID>  (535) 
CHEMBL1961873

>  <Source Description>  (535) 
GSK Published Kinase Inhibitor Set

>  <Document Journal>  (535) 
nan

>  <Document Year>  (535) 
nan

>  <Active>  (535) 
0.0

>  <bits>  (535) 
<rdkit.DataStructs.cDataStructs.ExplicitBitVect object at 0x00000193F33EA6C0>

>  <Group>  (535) 
G2

$$$$

     RDKit          2D

 24 27  0  0  0  0  0  0  0  0999 V2000
    7.5000   -5.1962    0.0000 C   0  0  0  0  0  0  0  0  0  0  0  0
    6.0000   -5.1962    0.0000 O   0  0  0  0  0  0  0  0  0  0  0  0
    5.2500   -6.4952    0.0000 C   0  0  0  0  0  0  0  0  0  0  0  0
    6.0000   -7.7942    0.0000 C   0  0  0  0  0  0  0  0  0  0  0  0
    5.2500   -9.0933    0.0000 C   0  0  0  0  0  0  0  0  0  0  0  0
    3.7500   -9.0933    0.0000 C   0  0  0  0  0  0  0  0  0  0  0  0
    3.0000   -7.7942    0.0000 C   0  0  0  0  0  0  0  0  0  0  0  0
    3.7500   -6.4952    0.0000 C   0  0  0  0  0  0  0  0  0  0  0  0
    3.0000   -5.1962    0.0000 N   0  0  0  0  0  0  0  0  0  0  0  0
    3.7500   -3.8971    0.0000 C   0  0  0  0  0  0  0  0  0  0  0  0
    3.0000   -2.5981    0.0000 C   0  0  0  0  0  0  0  0  0  0  0  0
    1.5000   -2.5981    0.0000 N   0  0  0  0  0  0  0  0  0  0  0  0
    0.7500   -1.2990    0.0000 C   0  0  0  0  0  0  0  0  0  0  0  0
    1.5000    0.0000    0.0000 N   0  0  0  0  0  0  0  0  0  0  0  0
    0.7500    1.2990    0.0000 C   0  0  0  0  0  0  0  0  0  0  0  0
   -0.7500    1.2990    0.0000 N   0  0  0  0  0  0  0  0  0  0  0  0
   -1.5000    0.0000    0.0000 C   0  0  0  0  0  0  0  0  0  0  0  0
   -2.9672   -0.3119    0.0000 N   0  0  0  0  0  0  0  0  0  0  0  0
   -3.1240   -1.8037    0.0000 N   0  0  0  0  0  0  0  0  0  0  0  0
   -1.7537   -2.4138    0.0000 C   0  0  0  0  0  0  0  0  0  0  0  0
   -1.4418   -3.8810    0.0000 Br  0  0  0  0  0  0  0  0  0  0  0  0
   -0.7500   -1.2990    0.0000 C   0  0  0  0  0  0  0  0  0  0  0  0
    0.7500   -3.8971    0.0000 C   0  0  0  0  0  0  0  0  0  0  0  0
    1.5000   -5.1962    0.0000 C   0  0  0  0  0  0  0  0  0  0  0  0
  1  2  1  0
  2  3  1  0
  3  4  2  0
  4  5  1  0
  5  6  2  0
  6  7  1  0
  7  8  2  0
  8  9  1  0
  9 10  1  0
 10 11  1  0
 11 12  1  0
 12 13  1  0
 13 14  2  0
 14 15  1  0
 15 16  2  0
 16 17  1  0
 17 18  1  0
 18 19  1  0
 19 20  2  0
 20 21  1  0
 20 22  1  0
 12 23  1  0
 23 24  1  0
  8  3  1  0
 24  9  1  0
 22 13  1  0
 22 17  2  0
M  END
>  <Compound_ID>  (536) 
CHEMBL1254209

>  <Molecule Name>  (536) 
nan

>  <Molecular Weight>  (536) 
389.26

>  <AlogP>  (536) 
2.45

>  <Smiles>  (536) 
COc1ccccc1N1CCN(c2ncnc3[nH]nc(Br)c23)CC1

>  <Standard Type>  (536) 
Inhibition

>  <Standard Relation>  (536) 
'='

>  <Standard Units>  (536) 
%

>  <Standard Value>  (536) 
12.0

>  <Assay ChEMBL ID>  (536) 
CHEMBL1251704

>  <Assay Description>  (536) 
Inhibition of SYK at 1 uM in presence of 10 uM ATP by Select Screen kinase assay relative to untreated control

>  <BAO Format ID>  (536) 
BAO_0000357

>  <BAO Label>  (536) 
single protein format

>  <Assay Organism>  (536) 
None

>  <Target ChEMBL ID>  (536) 
CHEMBL2599

>  <Target Name>  (536) 
Tyrosine-protein kinase SYK

>  <Target Organism>  (536) 
Homo sapiens

>  <Target Type>  (536) 
SINGLE PROTEIN

>  <Document ChEMBL ID>  (536) 
CHEMBL1250448

>  <Source Description>  (536) 
Scientific Literature

>  <Document Journal>  (536) 
Nat Chem Biol

>  <Document Year>  (536) 
2009.0

>  <Active>  (536) 
0.0

>  <bits>  (536) 
<rdkit.DataStructs.cDataStructs.ExplicitBitVect object at 0x00000193F33EBB50>

>  <Group>  (536) 
G2

$$$$

     RDKit          2D

 30 33  0  0  0  0  0  0  0  0999 V2000
    2.6401   -3.1891    0.0000 C   0  0  0  0  0  0  0  0  0  0  0  0
    1.2135   -2.7256    0.0000 C   0  0  0  0  0  0  0  0  0  0  0  0
    0.7500   -1.2990    0.0000 C   0  0  0  0  0  0  0  0  0  0  0  0
    1.5000    0.0000    0.0000 C   0  0  0  0  0  0  0  0  0  0  0  0
    0.7500    1.2990    0.0000 C   0  0  0  0  0  0  0  0  0  0  0  0
   -0.7500    1.2990    0.0000 C   0  0  0  0  0  0  0  0  0  0  0  0
   -1.5000    2.5981    0.0000 N   0  0  0  0  0  0  0  0  0  0  0  0
   -0.7500    3.8971    0.0000 C   0  0  0  0  0  0  0  0  0  0  0  0
   -3.0000    2.5981    0.0000 C   0  0  0  0  0  0  0  0  0  0  0  0
   -3.7500    3.8971    0.0000 C   0  0  0  0  0  0  0  0  0  0  0  0
   -5.2500    3.8971    0.0000 C   0  0  0  0  0  0  0  0  0  0  0  0
   -6.0000    2.5981    0.0000 N   0  0  0  0  0  0  0  0  0  0  0  0
   -5.2500    1.2990    0.0000 C   0  0  0  0  0  0  0  0  0  0  0  0
   -6.0000    0.0000    0.0000 N   0  0  0  0  0  0  0  0  0  0  0  0
   -7.5000    0.0000    0.0000 C   0  0  0  0  0  0  0  0  0  0  0  0
   -8.2500    1.2990    0.0000 C   0  0  0  0  0  0  0  0  0  0  0  0
   -9.7500    1.2990    0.0000 C   0  0  0  0  0  0  0  0  0  0  0  0
  -10.5000    0.0000    0.0000 C   0  0  0  0  0  0  0  0  0  0  0  0
   -9.7500   -1.2990    0.0000 C   0  0  0  0  0  0  0  0  0  0  0  0
  -10.5000   -2.5981    0.0000 S   0  0  0  0  0  0  0  0  0  0  0  0
  -11.2500   -3.8971    0.0000 N   0  0  0  0  0  0  0  0  0  0  0  0
  -11.7990   -1.8481    0.0000 O   0  0  0  0  0  0  0  0  0  0  0  0
   -9.2010   -3.3481    0.0000 O   0  0  0  0  0  0  0  0  0  0  0  0
   -8.2500   -1.2990    0.0000 C   0  0  0  0  0  0  0  0  0  0  0  0
   -3.7500    1.2990    0.0000 N   0  0  0  0  0  0  0  0  0  0  0  0
   -1.5000    0.0000    0.0000 C   0  0  0  0  0  0  0  0  0  0  0  0
   -0.7500   -1.2990    0.0000 C   0  0  0  0  0  0  0  0  0  0  0  0
   -1.2135   -2.7256    0.0000 N   0  0  0  0  0  0  0  0  0  0  0  0
   -0.0000   -3.6073    0.0000 N   0  0  0  0  0  0  0  0  0  0  0  0
   -0.0000   -5.1073    0.0000 C   0  0  0  0  0  0  0  0  0  0  0  0
  1  2  1  0
  2  3  2  0
  3  4  1  0
  4  5  2  0
  5  6  1  0
  6  7  1  0
  7  8  1  0
  7  9  1  0
  9 10  2  0
 10 11  1  0
 11 12  2  0
 12 13  1  0
 13 14  1  0
 14 15  1  0
 15 16  2  0
 16 17  1  0
 17 18  2  0
 18 19  1  0
 19 20  1  0
 20 21  1  0
 20 22  2  0
 20 23  2  0
 19 24  2  0
 13 25  2  0
  6 26  2  0
 26 27  1  0
 27 28  2  0
 28 29  1  0
 29 30  1  0
 29  2  1  0
 27  3  1  0
 25  9  1  0
 24 15  1  0
M  END
>  <Compound_ID>  (537) 
CHEMBL1909359

>  <Molecule Name>  (537) 
GW771127A

>  <Molecular Weight>  (537) 
459.96

>  <AlogP>  (537) 
2.83

>  <Smiles>  (537) 
Cc1c2ccc(N(C)c3ccnc(Nc4cccc(S(N)(=O)=O)c4)n3)cc2nn1C

>  <Standard Type>  (537) 
Inhibition

>  <Standard Relation>  (537) 
'='

>  <Standard Units>  (537) 
%

>  <Standard Value>  (537) 
-4.22

>  <Assay ChEMBL ID>  (537) 
CHEMBL1962174

>  <Assay Description>  (537) 
GSK_PKIS: SYK mean inhibition at 0.1 uM [Nanosyn]

>  <BAO Format ID>  (537) 
BAO_0000357

>  <BAO Label>  (537) 
single protein format

>  <Assay Organism>  (537) 
None

>  <Target ChEMBL ID>  (537) 
CHEMBL2599

>  <Target Name>  (537) 
Tyrosine-protein kinase SYK

>  <Target Organism>  (537) 
Homo sapiens

>  <Target Type>  (537) 
SINGLE PROTEIN

>  <Document ChEMBL ID>  (537) 
CHEMBL1961873

>  <Source Description>  (537) 
GSK Published Kinase Inhibitor Set

>  <Document Journal>  (537) 
nan

>  <Document Year>  (537) 
nan

>  <Active>  (537) 
0.0

>  <bits>  (537) 
<rdkit.DataStructs.cDataStructs.ExplicitBitVect object at 0x00000193F33E99A0>

>  <Group>  (537) 
G2

$$$$

     RDKit          2D

 28 31  0  0  0  0  0  0  0  0999 V2000
   -6.1577   -6.2752    0.0000 C   0  0  0  0  0  0  0  0  0  0  0  0
   -4.6904   -6.5871    0.0000 C   0  0  0  0  0  0  0  0  0  0  0  0
   -3.2232   -6.8990    0.0000 C   0  0  0  0  0  0  0  0  0  0  0  0
   -5.0023   -8.0543    0.0000 C   0  0  0  0  0  0  0  0  0  0  0  0
   -4.3786   -5.1199    0.0000 C   0  0  0  0  0  0  0  0  0  0  0  0
   -2.9520   -4.6564    0.0000 N   0  0  0  0  0  0  0  0  0  0  0  0
   -2.6401   -3.1891    0.0000 C   0  0  0  0  0  0  0  0  0  0  0  0
   -3.7548   -2.1855    0.0000 O   0  0  0  0  0  0  0  0  0  0  0  0
   -1.2135   -2.7256    0.0000 C   0  0  0  0  0  0  0  0  0  0  0  0
   -0.0000   -3.6073    0.0000 C   0  0  0  0  0  0  0  0  0  0  0  0
    1.2135   -2.7256    0.0000 N   0  0  0  0  0  0  0  0  0  0  0  0
    0.7500   -1.2990    0.0000 C   0  0  0  0  0  0  0  0  0  0  0  0
    1.5000    0.0000    0.0000 N   0  0  0  0  0  0  0  0  0  0  0  0
    0.7500    1.2990    0.0000 C   0  0  0  0  0  0  0  0  0  0  0  0
   -0.7500    1.2990    0.0000 C   0  0  0  0  0  0  0  0  0  0  0  0
   -1.5000    2.5981    0.0000 C   0  0  0  0  0  0  0  0  0  0  0  0
   -2.7990    3.3481    0.0000 C   0  0  0  0  0  0  0  0  0  0  0  0
   -1.5000    4.0981    0.0000 C   0  0  0  0  0  0  0  0  0  0  0  0
   -1.5000    0.0000    0.0000 N   0  0  0  0  0  0  0  0  0  0  0  0
   -0.7500   -1.2990    0.0000 C   0  0  0  0  0  0  0  0  0  0  0  0
   -5.4933   -4.1162    0.0000 C   0  0  0  0  0  0  0  0  0  0  0  0
   -5.1814   -2.6490    0.0000 O   0  0  0  0  0  0  0  0  0  0  0  0
   -6.9199   -4.5797    0.0000 N   0  0  0  0  0  0  0  0  0  0  0  0
   -8.2564   -3.8987    0.0000 C   0  0  0  0  0  0  0  0  0  0  0  0
   -8.9374   -5.2352    0.0000 C   0  0  0  0  0  0  0  0  0  0  0  0
  -10.3639   -5.6988    0.0000 C   0  0  0  0  0  0  0  0  0  0  0  0
  -11.7905   -6.1623    0.0000 N   0  0  0  0  0  0  0  0  0  0  0  0
   -7.6009   -5.9162    0.0000 C   0  0  0  0  0  0  0  0  0  0  0  0
  1  2  1  0
  2  3  1  0
  2  4  1  0
  2  5  1  0
  5  6  1  6
  6  7  1  0
  7  8  2  0
  7  9  1  0
  9 10  2  0
 10 11  1  0
 11 12  1  0
 12 13  2  0
 13 14  1  0
 14 15  2  0
 15 16  1  0
 16 17  1  0
 17 18  1  0
 15 19  1  0
 19 20  2  0
  5 21  1  0
 21 22  2  0
 21 23  1  0
 23 24  1  0
 24 25  1  0
 25 26  1  0
 26 27  3  0
 25 28  1  0
 20  9  1  0
 28 23  1  0
 20 12  1  0
 18 16  1  0
M  END
>  <Compound_ID>  (538) 
CHEMBL2325895

>  <Molecule Name>  (538) 
nan

>  <Molecular Weight>  (538) 
380.45

>  <AlogP>  (538) 
1.96

>  <Smiles>  (538) 
CC(C)(C)[C@@H](NC(=O)c1c[nH]c2ncc(C3CC3)nc12)C(=O)N1CC(C#N)C1

>  <Standard Type>  (538) 
Inhibition

>  <Standard Relation>  (538) 
'='

>  <Standard Units>  (538) 
%

>  <Standard Value>  (538) 
8.0

>  <Assay ChEMBL ID>  (538) 
CHEMBL2329055

>  <Assay Description>  (538) 
Inhibition of SYK (unknown origin) at 1 uM

>  <BAO Format ID>  (538) 
BAO_0000357

>  <BAO Label>  (538) 
single protein format

>  <Assay Organism>  (538) 
Homo sapiens

>  <Target ChEMBL ID>  (538) 
CHEMBL2599

>  <Target Name>  (538) 
Tyrosine-protein kinase SYK

>  <Target Organism>  (538) 
Homo sapiens

>  <Target Type>  (538) 
SINGLE PROTEIN

>  <Document ChEMBL ID>  (538) 
CHEMBL2321829

>  <Source Description>  (538) 
Scientific Literature

>  <Document Journal>  (538) 
J Med Chem

>  <Document Year>  (538) 
2013.0

>  <Active>  (538) 
0.0

>  <bits>  (538) 
<rdkit.DataStructs.cDataStructs.ExplicitBitVect object at 0x00000193F33E98C0>

>  <Group>  (538) 
G2

$$$$

     RDKit          2D

 38 41  0  0  0  0  0  0  0  0999 V2000
    0.7500   -3.8971    0.0000 C   0  0  0  0  0  0  0  0  0  0  0  0
    1.5000   -2.5981    0.0000 N   0  0  0  0  0  0  0  0  0  0  0  0
    0.7500   -1.2990    0.0000 C   0  0  0  0  0  0  0  0  0  0  0  0
    1.5000    0.0000    0.0000 C   0  0  0  0  0  0  0  0  0  0  0  0
    0.7500    1.2990    0.0000 C   0  0  0  0  0  0  0  0  0  0  0  0
   -0.7500    1.2990    0.0000 C   0  0  0  0  0  0  0  0  0  0  0  0
   -1.5000    2.5981    0.0000 N   0  0  0  0  0  0  0  0  0  0  0  0
   -0.7500    3.8971    0.0000 C   0  0  0  0  0  0  0  0  0  0  0  0
    0.7500    3.8971    0.0000 O   0  0  0  0  0  0  0  0  0  0  0  0
   -1.5000    5.1962    0.0000 N   0  0  0  0  0  0  0  0  0  0  0  0
   -0.7500    6.4952    0.0000 C   0  0  0  0  0  0  0  0  0  0  0  0
   -1.5000    7.7942    0.0000 C   0  0  0  0  0  0  0  0  0  0  0  0
   -0.7500    9.0933    0.0000 N   0  0  0  0  0  0  0  0  0  0  0  0
    0.7500    9.0933    0.0000 C   0  0  0  0  0  0  0  0  0  0  0  0
    1.5000   10.3923    0.0000 C   0  0  0  0  0  0  0  0  0  0  0  0
    0.7500   11.6913    0.0000 O   0  0  0  0  0  0  0  0  0  0  0  0
   -0.7500   11.6913    0.0000 C   0  0  0  0  0  0  0  0  0  0  0  0
   -1.5000   10.3923    0.0000 C   0  0  0  0  0  0  0  0  0  0  0  0
   -1.5000    0.0000    0.0000 C   0  0  0  0  0  0  0  0  0  0  0  0
   -0.7500   -1.2990    0.0000 C   0  0  0  0  0  0  0  0  0  0  0  0
    3.0000   -2.5981    0.0000 C   0  0  0  0  0  0  0  0  0  0  0  0
    3.7500   -3.8971    0.0000 C   0  0  0  0  0  0  0  0  0  0  0  0
    5.2500   -3.8971    0.0000 C   0  0  0  0  0  0  0  0  0  0  0  0
    6.0000   -2.5981    0.0000 N   0  0  0  0  0  0  0  0  0  0  0  0
    5.2500   -1.2990    0.0000 C   0  0  0  0  0  0  0  0  0  0  0  0
    6.0000   -0.0000    0.0000 N   0  0  0  0  0  0  0  0  0  0  0  0
    7.5000   -0.0000    0.0000 C   0  0  0  0  0  0  0  0  0  0  0  0
    8.2500   -1.2990    0.0000 C   0  0  0  0  0  0  0  0  0  0  0  0
    9.7500   -1.2990    0.0000 C   0  0  0  0  0  0  0  0  0  0  0  0
   10.5000   -0.0000    0.0000 C   0  0  0  0  0  0  0  0  0  0  0  0
   12.0000   -0.0000    0.0000 C   0  0  0  0  0  0  0  0  0  0  0  0
   12.7500   -1.2990    0.0000 S   0  0  0  0  0  0  0  0  0  0  0  0
   13.5000   -2.5981    0.0000 C   0  0  0  0  0  0  0  0  0  0  0  0
   11.4510   -2.0490    0.0000 O   0  0  0  0  0  0  0  0  0  0  0  0
   14.0490   -0.5490    0.0000 O   0  0  0  0  0  0  0  0  0  0  0  0
    9.7500    1.2990    0.0000 C   0  0  0  0  0  0  0  0  0  0  0  0
    8.2500    1.2990    0.0000 C   0  0  0  0  0  0  0  0  0  0  0  0
    3.7500   -1.2990    0.0000 N   0  0  0  0  0  0  0  0  0  0  0  0
  1  2  1  0
  2  3  1  0
  3  4  2  0
  4  5  1  0
  5  6  2  0
  6  7  1  0
  7  8  1  0
  8  9  2  0
  8 10  1  0
 10 11  1  0
 11 12  1  0
 12 13  1  0
 13 14  1  0
 14 15  1  0
 15 16  1  0
 16 17  1  0
 17 18  1  0
  6 19  1  0
 19 20  2  0
  2 21  1  0
 21 22  2  0
 22 23  1  0
 23 24  2  0
 24 25  1  0
 25 26  1  0
 26 27  1  0
 27 28  2  0
 28 29  1  0
 29 30  2  0
 30 31  1  0
 31 32  1  0
 32 33  1  0
 32 34  2  0
 32 35  2  0
 30 36  1  0
 36 37  2  0
 25 38  2  0
 20  3  1  0
 38 21  1  0
 18 13  1  0
 37 27  1  0
M  END
>  <Compound_ID>  (539) 
CHEMBL1909361

>  <Molecule Name>  (539) 
GW830365A

>  <Molecular Weight>  (539) 
576.12

>  <AlogP>  (539) 
2.99

>  <Smiles>  (539) 
CN(c1ccc(NC(=O)NCCN2CCOCC2)cc1)c1ccnc(Nc2ccc(CS(C)(=O)=O)cc2)n1

>  <Standard Type>  (539) 
Inhibition

>  <Standard Relation>  (539) 
'='

>  <Standard Units>  (539) 
%

>  <Standard Value>  (539) 
-3.19

>  <Assay ChEMBL ID>  (539) 
CHEMBL1962174

>  <Assay Description>  (539) 
GSK_PKIS: SYK mean inhibition at 0.1 uM [Nanosyn]

>  <BAO Format ID>  (539) 
BAO_0000357

>  <BAO Label>  (539) 
single protein format

>  <Assay Organism>  (539) 
None

>  <Target ChEMBL ID>  (539) 
CHEMBL2599

>  <Target Name>  (539) 
Tyrosine-protein kinase SYK

>  <Target Organism>  (539) 
Homo sapiens

>  <Target Type>  (539) 
SINGLE PROTEIN

>  <Document ChEMBL ID>  (539) 
CHEMBL1961873

>  <Source Description>  (539) 
GSK Published Kinase Inhibitor Set

>  <Document Journal>  (539) 
nan

>  <Document Year>  (539) 
nan

>  <Active>  (539) 
0.0

>  <bits>  (539) 
<rdkit.DataStructs.cDataStructs.ExplicitBitVect object at 0x00000193F33E84A0>

>  <Group>  (539) 
G2

$$$$

     RDKit          2D

 36 39  0  0  0  0  0  0  0  0999 V2000
    3.0000    0.0000    0.0000 C   0  0  0  0  0  0  0  0  0  0  0  0
    1.5000    0.0000    0.0000 C   0  0  0  0  0  0  0  0  0  0  0  0
    0.7500   -1.2990    0.0000 C   0  0  0  0  0  0  0  0  0  0  0  0
   -0.7500   -1.2990    0.0000 C   0  0  0  0  0  0  0  0  0  0  0  0
   -1.5000    0.0000    0.0000 C   0  0  0  0  0  0  0  0  0  0  0  0
   -3.0000    0.0000    0.0000 N   0  0  0  0  0  0  0  0  0  0  0  0
   -3.7500    1.2990    0.0000 C   0  0  0  0  0  0  0  0  0  0  0  0
   -3.0000    2.5981    0.0000 O   0  0  0  0  0  0  0  0  0  0  0  0
   -5.2500    1.2990    0.0000 C   0  0  0  0  0  0  0  0  0  0  0  0
   -6.0000    2.5981    0.0000 C   0  0  0  0  0  0  0  0  0  0  0  0
   -7.5000    2.5981    0.0000 C   0  0  0  0  0  0  0  0  0  0  0  0
   -8.2500    3.8971    0.0000 N   0  0  0  0  0  0  0  0  0  0  0  0
   -7.5000    5.1962    0.0000 C   0  0  0  0  0  0  0  0  0  0  0  0
   -8.2500    6.4952    0.0000 C   0  0  0  0  0  0  0  0  0  0  0  0
   -9.7500    6.4952    0.0000 N   0  0  0  0  0  0  0  0  0  0  0  0
  -10.5000    7.7942    0.0000 C   0  0  0  0  0  0  0  0  0  0  0  0
  -10.5000    5.1962    0.0000 C   0  0  0  0  0  0  0  0  0  0  0  0
   -9.7500    3.8971    0.0000 C   0  0  0  0  0  0  0  0  0  0  0  0
   -8.2500    1.2990    0.0000 C   0  0  0  0  0  0  0  0  0  0  0  0
   -7.5000    0.0000    0.0000 C   0  0  0  0  0  0  0  0  0  0  0  0
   -8.2500   -1.2990    0.0000 C   0  0  0  0  0  0  0  0  0  0  0  0
   -9.0000   -2.5981    0.0000 F   0  0  0  0  0  0  0  0  0  0  0  0
   -9.5490   -0.5490    0.0000 F   0  0  0  0  0  0  0  0  0  0  0  0
   -6.9510   -2.0490    0.0000 F   0  0  0  0  0  0  0  0  0  0  0  0
   -6.0000    0.0000    0.0000 C   0  0  0  0  0  0  0  0  0  0  0  0
   -0.7500    1.2990    0.0000 C   0  0  0  0  0  0  0  0  0  0  0  0
    0.7500    1.2990    0.0000 C   0  0  0  0  0  0  0  0  0  0  0  0
    1.5000    2.5981    0.0000 N   0  0  0  0  0  0  0  0  0  0  0  0
    0.7500    3.8971    0.0000 C   0  0  0  0  0  0  0  0  0  0  0  0
   -0.7500    3.8971    0.0000 O   0  0  0  0  0  0  0  0  0  0  0  0
    1.5000    5.1962    0.0000 C   0  0  0  0  0  0  0  0  0  0  0  0
    0.8899    6.5665    0.0000 C   0  0  0  0  0  0  0  0  0  0  0  0
    2.0046    7.5702    0.0000 N   0  0  0  0  0  0  0  0  0  0  0  0
    3.3037    6.8202    0.0000 O   0  0  0  0  0  0  0  0  0  0  0  0
    2.9918    5.3529    0.0000 C   0  0  0  0  0  0  0  0  0  0  0  0
    3.9955    4.2382    0.0000 C   0  0  0  0  0  0  0  0  0  0  0  0
  1  2  1  0
  2  3  2  0
  3  4  1  0
  4  5  2  0
  5  6  1  0
  6  7  1  0
  7  8  2  0
  7  9  1  0
  9 10  2  0
 10 11  1  0
 11 12  1  0
 12 13  1  0
 13 14  1  0
 14 15  1  0
 15 16  1  0
 15 17  1  0
 17 18  1  0
 11 19  2  0
 19 20  1  0
 20 21  1  0
 21 22  1  0
 21 23  1  0
 21 24  1  0
 20 25  2  0
  5 26  1  0
 26 27  2  0
 27 28  1  0
 28 29  1  0
 29 30  2  0
 29 31  1  0
 31 32  1  0
 32 33  2  0
 33 34  1  0
 34 35  1  0
 35 36  1  0
 27  2  1  0
 35 31  2  0
 25  9  1  0
 18 12  1  0
M  END
>  <Compound_ID>  (540) 
CHEMBL3616960

>  <Molecule Name>  (540) 
nan

>  <Molecular Weight>  (540) 
501.51

>  <AlogP>  (540) 
4.57

>  <Smiles>  (540) 
Cc1ccc(NC(=O)c2cc(N3CCN(C)CC3)cc(C(F)(F)F)c2)cc1NC(=O)c1cnoc1C

>  <Standard Type>  (540) 
Inhibition

>  <Standard Relation>  (540) 
'='

>  <Standard Units>  (540) 
%

>  <Standard Value>  (540) 
3.81

>  <Assay ChEMBL ID>  (540) 
CHEMBL3620014

>  <Assay Description>  (540) 
Inhibition of SYK (unknown origin) at 10 uM after 40 mins by scintillation counting analysis

>  <BAO Format ID>  (540) 
BAO_0000357

>  <BAO Label>  (540) 
single protein format

>  <Assay Organism>  (540) 
Homo sapiens

>  <Target ChEMBL ID>  (540) 
CHEMBL2599

>  <Target Name>  (540) 
Tyrosine-protein kinase SYK

>  <Target Organism>  (540) 
Homo sapiens

>  <Target Type>  (540) 
SINGLE PROTEIN

>  <Document ChEMBL ID>  (540) 
CHEMBL3616395

>  <Source Description>  (540) 
Scientific Literature

>  <Document Journal>  (540) 
Eur J Med Chem

>  <Document Year>  (540) 
2015.0

>  <Active>  (540) 
0.0

>  <bits>  (540) 
<rdkit.DataStructs.cDataStructs.ExplicitBitVect object at 0x00000193F33E8A50>

>  <Group>  (540) 
G2

$$$$

     RDKit          2D

 34 38  0  0  0  0  0  0  0  0999 V2000
    3.0000    0.0000    0.0000 C   0  0  0  0  0  0  0  0  0  0  0  0
    1.5000    0.0000    0.0000 C   0  0  0  0  0  0  0  0  0  0  0  0
    0.7500   -1.2990    0.0000 C   0  0  0  0  0  0  0  0  0  0  0  0
   -0.7500   -1.2990    0.0000 C   0  0  0  0  0  0  0  0  0  0  0  0
   -1.5000    0.0000    0.0000 C   0  0  0  0  0  0  0  0  0  0  0  0
   -3.0000    0.0000    0.0000 N   0  0  0  0  0  0  0  0  0  0  0  0
   -3.7500    1.2990    0.0000 C   0  0  0  0  0  0  0  0  0  0  0  0
   -3.0000    2.5981    0.0000 O   0  0  0  0  0  0  0  0  0  0  0  0
   -5.2500    1.2990    0.0000 C   0  0  0  0  0  0  0  0  0  0  0  0
   -6.0000    2.5981    0.0000 C   0  0  0  0  0  0  0  0  0  0  0  0
   -7.5000    2.5981    0.0000 C   0  0  0  0  0  0  0  0  0  0  0  0
   -8.2500    1.2990    0.0000 N   0  0  0  0  0  0  0  0  0  0  0  0
   -7.5000    0.0000    0.0000 C   0  0  0  0  0  0  0  0  0  0  0  0
   -8.2500   -1.2990    0.0000 N   0  0  0  0  0  0  0  0  0  0  0  0
   -7.6399   -2.6694    0.0000 C   0  0  0  0  0  0  0  0  0  0  0  0
   -8.7546   -3.6731    0.0000 C   0  0  0  0  0  0  0  0  0  0  0  0
  -10.0537   -2.9231    0.0000 C   0  0  0  0  0  0  0  0  0  0  0  0
   -9.7418   -1.4558    0.0000 C   0  0  0  0  0  0  0  0  0  0  0  0
   -6.0000    0.0000    0.0000 C   0  0  0  0  0  0  0  0  0  0  0  0
   -0.7500    1.2990    0.0000 C   0  0  0  0  0  0  0  0  0  0  0  0
    0.7500    1.2990    0.0000 C   0  0  0  0  0  0  0  0  0  0  0  0
    1.5000    2.5981    0.0000 C   0  0  0  0  0  0  0  0  0  0  0  0
    3.0000    2.5981    0.0000 C   0  0  0  0  0  0  0  0  0  0  0  0
    3.7500    3.8971    0.0000 C   0  0  0  0  0  0  0  0  0  0  0  0
    3.0000    5.1962    0.0000 C   0  0  0  0  0  0  0  0  0  0  0  0
    3.7500    6.4952    0.0000 C   0  0  0  0  0  0  0  0  0  0  0  0
    3.0000    7.7942    0.0000 O   0  0  0  0  0  0  0  0  0  0  0  0
    5.2500    6.4952    0.0000 N   0  0  0  0  0  0  0  0  0  0  0  0
    6.0000    7.7942    0.0000 C   0  0  0  0  0  0  0  0  0  0  0  0
    7.5000    7.7942    0.0000 C   0  0  0  0  0  0  0  0  0  0  0  0
    8.7990    8.5442    0.0000 C   0  0  0  0  0  0  0  0  0  0  0  0
    8.7990    7.0442    0.0000 C   0  0  0  0  0  0  0  0  0  0  0  0
    1.5000    5.1962    0.0000 C   0  0  0  0  0  0  0  0  0  0  0  0
    0.7500    3.8971    0.0000 C   0  0  0  0  0  0  0  0  0  0  0  0
  1  2  1  0
  2  3  2  0
  3  4  1  0
  4  5  2  0
  5  6  1  0
  6  7  1  0
  7  8  2  0
  7  9  1  0
  9 10  2  0
 10 11  1  0
 11 12  2  0
 12 13  1  0
 13 14  1  0
 14 15  1  0
 15 16  1  0
 16 17  1  0
 17 18  1  0
 13 19  2  0
  5 20  1  0
 20 21  2  0
 21 22  1  0
 22 23  2  0
 23 24  1  0
 24 25  2  0
 25 26  1  0
 26 27  2  0
 26 28  1  0
 28 29  1  0
 29 30  1  0
 30 31  1  0
 31 32  1  0
 25 33  1  0
 33 34  2  0
 21  2  1  0
 34 22  1  0
 19  9  1  0
 32 30  1  0
 18 14  1  0
M  END
>  <Compound_ID>  (541) 
CHEMBL477182

>  <Molecule Name>  (541) 
GW769076X

>  <Molecular Weight>  (541) 
454.57

>  <AlogP>  (541) 
5.05

>  <Smiles>  (541) 
Cc1ccc(NC(=O)c2ccnc(N3CCCC3)c2)cc1-c1ccc(C(=O)NCC2CC2)cc1

>  <Standard Type>  (541) 
Inhibition

>  <Standard Relation>  (541) 
'='

>  <Standard Units>  (541) 
%

>  <Standard Value>  (541) 
-0.79

>  <Assay ChEMBL ID>  (541) 
CHEMBL1962174

>  <Assay Description>  (541) 
GSK_PKIS: SYK mean inhibition at 0.1 uM [Nanosyn]

>  <BAO Format ID>  (541) 
BAO_0000357

>  <BAO Label>  (541) 
single protein format

>  <Assay Organism>  (541) 
None

>  <Target ChEMBL ID>  (541) 
CHEMBL2599

>  <Target Name>  (541) 
Tyrosine-protein kinase SYK

>  <Target Organism>  (541) 
Homo sapiens

>  <Target Type>  (541) 
SINGLE PROTEIN

>  <Document ChEMBL ID>  (541) 
CHEMBL1961873

>  <Source Description>  (541) 
GSK Published Kinase Inhibitor Set

>  <Document Journal>  (541) 
nan

>  <Document Year>  (541) 
nan

>  <Active>  (541) 
0.0

>  <bits>  (541) 
<rdkit.DataStructs.cDataStructs.ExplicitBitVect object at 0x00000193F33EBE60>

>  <Group>  (541) 
G2

$$$$

     RDKit          2D

 38 42  0  0  0  0  0  0  0  0999 V2000
   -8.2500   -1.2990    0.0000 C   0  0  0  0  0  0  0  0  0  0  0  0
   -7.5000   -2.5981    0.0000 O   0  0  0  0  0  0  0  0  0  0  0  0
   -6.0000   -2.5981    0.0000 C   0  0  0  0  0  0  0  0  0  0  0  0
   -5.2500   -1.2990    0.0000 C   0  0  0  0  0  0  0  0  0  0  0  0
   -3.7500   -1.2990    0.0000 C   0  0  0  0  0  0  0  0  0  0  0  0
   -3.0000   -2.5981    0.0000 C   0  0  0  0  0  0  0  0  0  0  0  0
   -1.5000   -2.5981    0.0000 N   0  0  0  0  0  0  0  0  0  0  0  0
   -0.7500   -3.8971    0.0000 C   0  0  0  0  0  0  0  0  0  0  0  0
   -1.5000   -5.1962    0.0000 O   0  0  0  0  0  0  0  0  0  0  0  0
    0.7500   -3.8971    0.0000 C   0  0  0  0  0  0  0  0  0  0  0  0
    1.5000   -2.5981    0.0000 O   0  0  0  0  0  0  0  0  0  0  0  0
    0.7500   -1.2990    0.0000 C   0  0  0  0  0  0  0  0  0  0  0  0
    1.5000    0.0000    0.0000 C   0  0  0  0  0  0  0  0  0  0  0  0
    0.7500    1.2990    0.0000 C   0  0  0  0  0  0  0  0  0  0  0  0
   -0.7500    1.2990    0.0000 C   0  0  0  0  0  0  0  0  0  0  0  0
   -1.5000    2.5981    0.0000 C   0  0  0  0  0  0  0  0  0  0  0  0
   -0.7500    3.8971    0.0000 C   0  0  0  0  0  0  0  0  0  0  0  0
   -1.5000    5.1962    0.0000 N   0  0  0  0  0  0  0  0  0  0  0  0
   -3.0000    5.1962    0.0000 C   0  0  0  0  0  0  0  0  0  0  0  0
   -3.7500    6.4952    0.0000 O   0  0  0  0  0  0  0  0  0  0  0  0
   -3.0000    7.7942    0.0000 C   0  0  0  0  0  0  0  0  0  0  0  0
   -3.7500    3.8971    0.0000 C   0  0  0  0  0  0  0  0  0  0  0  0
   -5.2500    3.8971    0.0000 N   0  0  0  0  0  0  0  0  0  0  0  0
   -6.0000    5.1962    0.0000 S   0  0  0  0  0  0  0  0  0  0  0  0
   -4.7010    5.9462    0.0000 O   0  0  0  0  0  0  0  0  0  0  0  0
   -7.2990    4.4462    0.0000 O   0  0  0  0  0  0  0  0  0  0  0  0
   -6.7500    6.4952    0.0000 C   0  0  0  0  0  0  0  0  0  0  0  0
   -8.2500    6.4952    0.0000 C   0  0  0  0  0  0  0  0  0  0  0  0
   -9.0000    7.7942    0.0000 C   0  0  0  0  0  0  0  0  0  0  0  0
   -8.2500    9.0933    0.0000 C   0  0  0  0  0  0  0  0  0  0  0  0
   -9.0000   10.3923    0.0000 F   0  0  0  0  0  0  0  0  0  0  0  0
   -6.7500    9.0933    0.0000 C   0  0  0  0  0  0  0  0  0  0  0  0
   -6.0000    7.7942    0.0000 C   0  0  0  0  0  0  0  0  0  0  0  0
   -3.0000    2.5981    0.0000 C   0  0  0  0  0  0  0  0  0  0  0  0
   -1.5000    0.0000    0.0000 C   0  0  0  0  0  0  0  0  0  0  0  0
   -0.7500   -1.2990    0.0000 C   0  0  0  0  0  0  0  0  0  0  0  0
   -3.7500   -3.8971    0.0000 C   0  0  0  0  0  0  0  0  0  0  0  0
   -5.2500   -3.8971    0.0000 C   0  0  0  0  0  0  0  0  0  0  0  0
  1  2  1  0
  2  3  1  0
  3  4  2  0
  4  5  1  0
  5  6  2  0
  6  7  1  0
  7  8  1  0
  8  9  2  0
  8 10  1  0
 10 11  1  0
 11 12  1  0
 12 13  2  0
 13 14  1  0
 14 15  2  0
 15 16  1  0
 16 17  2  0
 17 18  1  0
 18 19  2  0
 19 20  1  0
 20 21  1  0
 19 22  1  0
 22 23  1  0
 23 24  1  0
 24 25  2  0
 24 26  2  0
 24 27  1  0
 27 28  2  0
 28 29  1  0
 29 30  2  0
 30 31  1  0
 30 32  1  0
 32 33  2  0
 22 34  2  0
 15 35  1  0
 35 36  2  0
  6 37  1  0
 37 38  2  0
 38  3  1  0
 36  7  1  0
 36 12  1  0
 34 16  1  0
 33 27  1  0
M  END
>  <Compound_ID>  (542) 
CHEMBL4528675

>  <Molecule Name>  (542) 
nan

>  <Molecular Weight>  (542) 
535.55

>  <AlogP>  (542) 
4.76

>  <Smiles>  (542) 
COc1ccc(N2C(=O)COc3ccc(-c4cnc(OC)c(NS(=O)(=O)c5ccc(F)cc5)c4)cc32)cc1

>  <Standard Type>  (542) 
Inhibition

>  <Standard Relation>  (542) 
'='

>  <Standard Units>  (542) 
%

>  <Standard Value>  (542) 
3.43

>  <Assay ChEMBL ID>  (542) 
CHEMBL4366608

>  <Assay Description>  (542) 
Inhibition of human SYK at 100 nM using poly[Glu:Tyr] (4:1) as substrate by [gamma-33P]-ATP assay

>  <BAO Format ID>  (542) 
BAO_0000357

>  <BAO Label>  (542) 
single protein format

>  <Assay Organism>  (542) 
Homo sapiens

>  <Target ChEMBL ID>  (542) 
CHEMBL2599

>  <Target Name>  (542) 
Tyrosine-protein kinase SYK

>  <Target Organism>  (542) 
Homo sapiens

>  <Target Type>  (542) 
SINGLE PROTEIN

>  <Document ChEMBL ID>  (542) 
CHEMBL4364276

>  <Source Description>  (542) 
Scientific Literature

>  <Document Journal>  (542) 
Eur J Med Chem

>  <Document Year>  (542) 
2019.0

>  <Active>  (542) 
0.0

>  <bits>  (542) 
<rdkit.DataStructs.cDataStructs.ExplicitBitVect object at 0x00000193F33E9A80>

>  <Group>  (542) 
G2

$$$$

     RDKit          2D

 30 32  0  0  0  0  0  0  0  0999 V2000
    4.5000   -5.1962    0.0000 C   0  0  0  0  0  0  0  0  0  0  0  0
    3.7500   -3.8971    0.0000 C   0  0  0  0  0  0  0  0  0  0  0  0
    4.5000   -2.5981    0.0000 C   0  0  0  0  0  0  0  0  0  0  0  0
    3.7500   -1.2990    0.0000 P   0  0  0  0  0  0  0  0  0  0  0  0
    2.4510   -2.0490    0.0000 O   0  0  0  0  0  0  0  0  0  0  0  0
    3.0000    0.0000    0.0000 C   0  0  0  0  0  0  0  0  0  0  0  0
    1.5000    0.0000    0.0000 C   0  0  0  0  0  0  0  0  0  0  0  0
    0.7500   -1.2990    0.0000 C   0  0  0  0  0  0  0  0  0  0  0  0
   -0.7500   -1.2990    0.0000 C   0  0  0  0  0  0  0  0  0  0  0  0
   -1.5000    0.0000    0.0000 C   0  0  0  0  0  0  0  0  0  0  0  0
   -0.7500    1.2990    0.0000 C   0  0  0  0  0  0  0  0  0  0  0  0
   -1.5000    2.5981    0.0000 N   0  0  0  0  0  0  0  0  0  0  0  0
   -0.7500    3.8971    0.0000 C   0  0  0  0  0  0  0  0  0  0  0  0
    0.7500    3.8971    0.0000 C   0  0  0  0  0  0  0  0  0  0  0  0
    1.5000    5.1962    0.0000 C   0  0  0  0  0  0  0  0  0  0  0  0
    3.0000    5.1962    0.0000 C   0  0  0  0  0  0  0  0  0  0  0  0
    3.7500    3.8971    0.0000 C   0  0  0  0  0  0  0  0  0  0  0  0
    5.2500    3.8971    0.0000 C   0  0  0  0  0  0  0  0  0  0  0  0
    6.0000    5.1962    0.0000 C   0  0  0  0  0  0  0  0  0  0  0  0
    5.2500    6.4952    0.0000 C   0  0  0  0  0  0  0  0  0  0  0  0
    3.7500    6.4952    0.0000 C   0  0  0  0  0  0  0  0  0  0  0  0
    3.0000    7.7942    0.0000 O   0  0  0  0  0  0  0  0  0  0  0  0
    3.7500    9.0933    0.0000 C   0  0  0  0  0  0  0  0  0  0  0  0
    0.7500    6.4952    0.0000 N   0  0  0  0  0  0  0  0  0  0  0  0
   -0.7500    6.4952    0.0000 C   0  0  0  0  0  0  0  0  0  0  0  0
   -1.5000    5.1962    0.0000 N   0  0  0  0  0  0  0  0  0  0  0  0
    0.7500    1.2990    0.0000 C   0  0  0  0  0  0  0  0  0  0  0  0
    5.0490   -0.5490    0.0000 O   0  0  0  0  0  0  0  0  0  0  0  0
    6.3481   -1.2990    0.0000 C   0  0  0  0  0  0  0  0  0  0  0  0
    7.6471   -0.5490    0.0000 C   0  0  0  0  0  0  0  0  0  0  0  0
  1  2  1  0
  2  3  1  0
  3  4  1  0
  4  5  2  0
  4  6  1  0
  6  7  1  0
  7  8  2  0
  8  9  1  0
  9 10  2  0
 10 11  1  0
 11 12  1  0
 12 13  1  0
 13 14  2  0
 14 15  1  0
 15 16  1  0
 16 17  2  0
 17 18  1  0
 18 19  2  0
 19 20  1  0
 20 21  2  0
 21 22  1  0
 22 23  1  0
 15 24  2  0
 24 25  1  0
 25 26  2  0
 11 27  2  0
  4 28  1  0
 28 29  1  0
 29 30  1  0
 27  7  1  0
 26 13  1  0
 21 16  1  0
M  END
>  <Compound_ID>  (543) 
CHEMBL3264108

>  <Molecule Name>  (543) 
nan

>  <Molecular Weight>  (543) 
425.47

>  <AlogP>  (543) 
6.12

>  <Smiles>  (543) 
CCCP(=O)(Cc1cccc(Nc2cc(-c3ccccc3OC)ncn2)c1)OCC

>  <Standard Type>  (543) 
Inhibition

>  <Standard Relation>  (543) 
'='

>  <Standard Units>  (543) 
%

>  <Standard Value>  (543) 
-1.0

>  <Assay ChEMBL ID>  (543) 
CHEMBL3267959

>  <Assay Description>  (543) 
Inhibition of SYK (unknown origin) at 1 uM

>  <BAO Format ID>  (543) 
BAO_0000357

>  <BAO Label>  (543) 
single protein format

>  <Assay Organism>  (543) 
Homo sapiens

>  <Target ChEMBL ID>  (543) 
CHEMBL2599

>  <Target Name>  (543) 
Tyrosine-protein kinase SYK

>  <Target Organism>  (543) 
Homo sapiens

>  <Target Type>  (543) 
SINGLE PROTEIN

>  <Document ChEMBL ID>  (543) 
CHEMBL3259517

>  <Source Description>  (543) 
Scientific Literature

>  <Document Journal>  (543) 
J Med Chem

>  <Document Year>  (543) 
2014.0

>  <Active>  (543) 
0.0

>  <bits>  (543) 
<rdkit.DataStructs.cDataStructs.ExplicitBitVect object at 0x00000193F33EBD80>

>  <Group>  (543) 
G2

$$$$

     RDKit          2D

 22 25  0  0  0  0  0  0  0  0999 V2000
   -4.6740   -7.4303    0.0000 N   0  0  0  0  0  0  0  0  0  0  0  0
   -3.3037   -6.8202    0.0000 C   0  0  0  0  0  0  0  0  0  0  0  0
   -2.0046   -7.5702    0.0000 N   0  0  0  0  0  0  0  0  0  0  0  0
   -0.8899   -6.5665    0.0000 C   0  0  0  0  0  0  0  0  0  0  0  0
    0.5773   -6.8783    0.0000 C   0  0  0  0  0  0  0  0  0  0  0  0
    1.0409   -8.3049    0.0000 C   0  0  0  0  0  0  0  0  0  0  0  0
    2.5081   -8.6168    0.0000 C   0  0  0  0  0  0  0  0  0  0  0  0
    3.5118   -7.5021    0.0000 C   0  0  0  0  0  0  0  0  0  0  0  0
    3.0482   -6.0755    0.0000 C   0  0  0  0  0  0  0  0  0  0  0  0
    1.5810   -5.7636    0.0000 N   0  0  0  0  0  0  0  0  0  0  0  0
   -1.5000   -5.1962    0.0000 C   0  0  0  0  0  0  0  0  0  0  0  0
   -0.7500   -3.8971    0.0000 C   0  0  0  0  0  0  0  0  0  0  0  0
    0.7500   -3.8971    0.0000 C   0  0  0  0  0  0  0  0  0  0  0  0
    1.5000   -2.5981    0.0000 C   0  0  0  0  0  0  0  0  0  0  0  0
    0.7500   -1.2990    0.0000 C   0  0  0  0  0  0  0  0  0  0  0  0
    1.5000    0.0000    0.0000 N   0  0  0  0  0  0  0  0  0  0  0  0
    0.7500    1.2990    0.0000 C   0  0  0  0  0  0  0  0  0  0  0  0
   -0.7500    1.2990    0.0000 C   0  0  0  0  0  0  0  0  0  0  0  0
   -1.5000    0.0000    0.0000 C   0  0  0  0  0  0  0  0  0  0  0  0
   -0.7500   -1.2990    0.0000 C   0  0  0  0  0  0  0  0  0  0  0  0
   -1.5000   -2.5981    0.0000 N   0  0  0  0  0  0  0  0  0  0  0  0
   -2.9918   -5.3529    0.0000 S   0  0  0  0  0  0  0  0  0  0  0  0
  1  2  1  0
  2  3  2  0
  3  4  1  0
  4  5  1  0
  5  6  2  0
  6  7  1  0
  7  8  2  0
  8  9  1  0
  9 10  2  0
  4 11  2  0
 11 12  1  0
 12 13  2  0
 13 14  1  0
 14 15  2  0
 15 16  1  0
 16 17  2  0
 17 18  1  0
 18 19  2  0
 19 20  1  0
 20 21  2  0
 11 22  1  0
 22  2  1  0
 10  5  1  0
 21 12  1  0
 20 15  1  0
M  END
>  <Compound_ID>  (544) 
CHEMBL181361

>  <Molecule Name>  (544) 
GW693481X

>  <Molecular Weight>  (544) 
305.37

>  <AlogP>  (544) 
3.40

>  <Smiles>  (544) 
Nc1nc(-c2ccccn2)c(-c2ccc3ncccc3n2)s1

>  <Standard Type>  (544) 
Inhibition

>  <Standard Relation>  (544) 
'='

>  <Standard Units>  (544) 
%

>  <Standard Value>  (544) 
-1.33

>  <Assay ChEMBL ID>  (544) 
CHEMBL1962174

>  <Assay Description>  (544) 
GSK_PKIS: SYK mean inhibition at 0.1 uM [Nanosyn]

>  <BAO Format ID>  (544) 
BAO_0000357

>  <BAO Label>  (544) 
single protein format

>  <Assay Organism>  (544) 
None

>  <Target ChEMBL ID>  (544) 
CHEMBL2599

>  <Target Name>  (544) 
Tyrosine-protein kinase SYK

>  <Target Organism>  (544) 
Homo sapiens

>  <Target Type>  (544) 
SINGLE PROTEIN

>  <Document ChEMBL ID>  (544) 
CHEMBL1961873

>  <Source Description>  (544) 
GSK Published Kinase Inhibitor Set

>  <Document Journal>  (544) 
nan

>  <Document Year>  (544) 
nan

>  <Active>  (544) 
0.0

>  <bits>  (544) 
<rdkit.DataStructs.cDataStructs.ExplicitBitVect object at 0x00000193F33E8C80>

>  <Group>  (544) 
G2

$$$$

     RDKit          2D

 29 32  0  0  0  0  0  0  0  0999 V2000
    3.0000    0.0000    0.0000 C   0  0  0  0  0  0  0  0  0  0  0  0
    1.5000    0.0000    0.0000 C   0  0  0  0  0  0  0  0  0  0  0  0
    0.7500   -1.2990    0.0000 C   0  0  0  0  0  0  0  0  0  0  0  0
   -0.7500   -1.2990    0.0000 C   0  0  0  0  0  0  0  0  0  0  0  0
   -1.5000    0.0000    0.0000 C   0  0  0  0  0  0  0  0  0  0  0  0
   -3.0000    0.0000    0.0000 C   0  0  0  0  0  0  0  0  0  0  0  0
   -3.7500   -1.2990    0.0000 O   0  0  0  0  0  0  0  0  0  0  0  0
   -3.7500    1.2990    0.0000 N   0  0  0  0  0  0  0  0  0  0  0  0
   -5.2500    1.2990    0.0000 C   0  0  0  0  0  0  0  0  0  0  0  0
   -6.0000    2.5981    0.0000 C   0  0  0  0  0  0  0  0  0  0  0  0
   -7.5000    2.5981    0.0000 C   0  0  0  0  0  0  0  0  0  0  0  0
   -8.2500    1.2990    0.0000 C   0  0  0  0  0  0  0  0  0  0  0  0
   -7.5000    0.0000    0.0000 C   0  0  0  0  0  0  0  0  0  0  0  0
   -6.0000    0.0000    0.0000 C   0  0  0  0  0  0  0  0  0  0  0  0
   -0.7500    1.2990    0.0000 C   0  0  0  0  0  0  0  0  0  0  0  0
    0.7500    1.2990    0.0000 C   0  0  0  0  0  0  0  0  0  0  0  0
    1.5000    2.5981    0.0000 C   0  0  0  0  0  0  0  0  0  0  0  0
    3.0000    2.5981    0.0000 C   0  0  0  0  0  0  0  0  0  0  0  0
    3.7500    3.8971    0.0000 C   0  0  0  0  0  0  0  0  0  0  0  0
    3.0000    5.1962    0.0000 C   0  0  0  0  0  0  0  0  0  0  0  0
    3.7500    6.4952    0.0000 C   0  0  0  0  0  0  0  0  0  0  0  0
    3.0000    7.7942    0.0000 O   0  0  0  0  0  0  0  0  0  0  0  0
    5.2500    6.4952    0.0000 N   0  0  0  0  0  0  0  0  0  0  0  0
    6.0000    7.7942    0.0000 C   0  0  0  0  0  0  0  0  0  0  0  0
    7.5000    7.7942    0.0000 C   0  0  0  0  0  0  0  0  0  0  0  0
    8.7990    8.5442    0.0000 C   0  0  0  0  0  0  0  0  0  0  0  0
    8.7990    7.0442    0.0000 C   0  0  0  0  0  0  0  0  0  0  0  0
    1.5000    5.1962    0.0000 C   0  0  0  0  0  0  0  0  0  0  0  0
    0.7500    3.8971    0.0000 C   0  0  0  0  0  0  0  0  0  0  0  0
  1  2  1  0
  2  3  2  0
  3  4  1  0
  4  5  2  0
  5  6  1  0
  6  7  2  0
  6  8  1  0
  8  9  1  0
  9 10  1  0
 10 11  1  0
 11 12  1  0
 12 13  1  0
 13 14  1  0
  5 15  1  0
 15 16  2  0
 16 17  1  0
 17 18  2  0
 18 19  1  0
 19 20  2  0
 20 21  1  0
 21 22  2  0
 21 23  1  0
 23 24  1  0
 24 25  1  0
 25 26  1  0
 26 27  1  0
 20 28  1  0
 28 29  2  0
 16  2  1  0
 29 17  1  0
 14  9  1  0
 27 25  1  0
M  END
>  <Compound_ID>  (545) 
CHEMBL477978

>  <Molecule Name>  (545) 
GW782907X

>  <Molecular Weight>  (545) 
390.53

>  <AlogP>  (545) 
4.86

>  <Smiles>  (545) 
Cc1ccc(C(=O)NC2CCCCC2)cc1-c1ccc(C(=O)NCC2CC2)cc1

>  <Standard Type>  (545) 
Inhibition

>  <Standard Relation>  (545) 
'='

>  <Standard Units>  (545) 
%

>  <Standard Value>  (545) 
0.52

>  <Assay ChEMBL ID>  (545) 
CHEMBL1962175

>  <Assay Description>  (545) 
GSK_PKIS: SYK mean inhibition at 1 uM [Nanosyn]

>  <BAO Format ID>  (545) 
BAO_0000357

>  <BAO Label>  (545) 
single protein format

>  <Assay Organism>  (545) 
None

>  <Target ChEMBL ID>  (545) 
CHEMBL2599

>  <Target Name>  (545) 
Tyrosine-protein kinase SYK

>  <Target Organism>  (545) 
Homo sapiens

>  <Target Type>  (545) 
SINGLE PROTEIN

>  <Document ChEMBL ID>  (545) 
CHEMBL1961873

>  <Source Description>  (545) 
GSK Published Kinase Inhibitor Set

>  <Document Journal>  (545) 
nan

>  <Document Year>  (545) 
nan

>  <Active>  (545) 
0.0

>  <bits>  (545) 
<rdkit.DataStructs.cDataStructs.ExplicitBitVect object at 0x00000193F33E8AC0>

>  <Group>  (545) 
G2

$$$$

     RDKit          2D

 25 28  0  0  0  0  0  0  0  0999 V2000
    4.5000   -7.7942    0.0000 N   0  0  0  0  0  0  0  0  0  0  0  0
    3.7500   -6.4952    0.0000 S   0  0  0  0  0  0  0  0  0  0  0  0
    2.4510   -7.2452    0.0000 O   0  0  0  0  0  0  0  0  0  0  0  0
    5.0490   -5.7452    0.0000 O   0  0  0  0  0  0  0  0  0  0  0  0
    3.0000   -5.1962    0.0000 C   0  0  0  0  0  0  0  0  0  0  0  0
    1.5000   -5.1962    0.0000 C   0  0  0  0  0  0  0  0  0  0  0  0
    0.7500   -3.8971    0.0000 C   0  0  0  0  0  0  0  0  0  0  0  0
    1.5000   -2.5981    0.0000 C   0  0  0  0  0  0  0  0  0  0  0  0
    0.7500   -1.2990    0.0000 C   0  0  0  0  0  0  0  0  0  0  0  0
    1.5000    0.0000    0.0000 C   0  0  0  0  0  0  0  0  0  0  0  0
    0.7500    1.2990    0.0000 C   0  0  0  0  0  0  0  0  0  0  0  0
   -0.7500    1.2990    0.0000 C   0  0  0  0  0  0  0  0  0  0  0  0
   -1.7537    2.4138    0.0000 C   0  0  0  0  0  0  0  0  0  0  0  0
   -1.4418    3.8810    0.0000 N   0  0  0  0  0  0  0  0  0  0  0  0
   -2.5565    4.8847    0.0000 C   0  0  0  0  0  0  0  0  0  0  0  0
   -3.9831    4.4211    0.0000 O   0  0  0  0  0  0  0  0  0  0  0  0
   -2.2447    6.3519    0.0000 C   0  0  0  0  0  0  0  0  0  0  0  0
   -2.7082    7.7785    0.0000 C   0  0  0  0  0  0  0  0  0  0  0  0
   -1.2410    7.4666    0.0000 C   0  0  0  0  0  0  0  0  0  0  0  0
   -3.1240    1.8037    0.0000 N   0  0  0  0  0  0  0  0  0  0  0  0
   -2.9672    0.3119    0.0000 N   0  0  0  0  0  0  0  0  0  0  0  0
   -1.5000    0.0000    0.0000 C   0  0  0  0  0  0  0  0  0  0  0  0
   -0.7500   -1.2990    0.0000 C   0  0  0  0  0  0  0  0  0  0  0  0
    3.0000   -2.5981    0.0000 C   0  0  0  0  0  0  0  0  0  0  0  0
    3.7500   -3.8971    0.0000 C   0  0  0  0  0  0  0  0  0  0  0  0
  1  2  1  0
  2  3  2  0
  2  4  2  0
  2  5  1  0
  5  6  2  0
  6  7  1  0
  7  8  2  0
  8  9  1  0
  9 10  2  0
 10 11  1  0
 11 12  2  0
 12 13  1  0
 13 14  1  0
 14 15  1  0
 15 16  2  0
 15 17  1  0
 17 18  1  0
 18 19  1  0
 13 20  2  0
 20 21  1  0
 21 22  1  0
 22 23  2  0
  8 24  1  0
 24 25  2  0
 25  5  1  0
 23  9  1  0
 22 12  1  0
 19 17  1  0
M  END
>  <Compound_ID>  (546) 
CHEMBL103098

>  <Molecule Name>  (546) 
nan

>  <Molecular Weight>  (546) 
356.41

>  <AlogP>  (546) 
2.23

>  <Smiles>  (546) 
NS(=O)(=O)c1ccc(-c2ccc3c(NC(=O)C4CC4)n[nH]c3c2)cc1

>  <Standard Type>  (546) 
Inhibition

>  <Standard Relation>  (546) 
'='

>  <Standard Units>  (546) 
%

>  <Standard Value>  (546) 
-0.58

>  <Assay ChEMBL ID>  (546) 
CHEMBL1962174

>  <Assay Description>  (546) 
GSK_PKIS: SYK mean inhibition at 0.1 uM [Nanosyn]

>  <BAO Format ID>  (546) 
BAO_0000357

>  <BAO Label>  (546) 
single protein format

>  <Assay Organism>  (546) 
None

>  <Target ChEMBL ID>  (546) 
CHEMBL2599

>  <Target Name>  (546) 
Tyrosine-protein kinase SYK

>  <Target Organism>  (546) 
Homo sapiens

>  <Target Type>  (546) 
SINGLE PROTEIN

>  <Document ChEMBL ID>  (546) 
CHEMBL1961873

>  <Source Description>  (546) 
GSK Published Kinase Inhibitor Set

>  <Document Journal>  (546) 
nan

>  <Document Year>  (546) 
nan

>  <Active>  (546) 
0.0

>  <bits>  (546) 
<rdkit.DataStructs.cDataStructs.ExplicitBitVect object at 0x00000193F33EAFF0>

>  <Group>  (546) 
G2

$$$$

     RDKit          2D

 26 29  0  0  0  0  0  0  0  0999 V2000
    3.0000    0.0000    0.0000 N   0  0  0  0  0  0  0  0  0  0  0  0
    1.5000    0.0000    0.0000 C   0  0  0  0  0  0  0  0  0  0  0  0
    0.7500   -1.2990    0.0000 N   0  0  0  0  0  0  0  0  0  0  0  0
   -0.7500   -1.2990    0.0000 C   0  0  0  0  0  0  0  0  0  0  0  0
   -1.5000    0.0000    0.0000 C   0  0  0  0  0  0  0  0  0  0  0  0
   -0.7500    1.2990    0.0000 C   0  0  0  0  0  0  0  0  0  0  0  0
   -1.5000    2.5981    0.0000 C   0  0  0  0  0  0  0  0  0  0  0  0
   -2.9918    2.7549    0.0000 C   0  0  0  0  0  0  0  0  0  0  0  0
   -3.9955    1.6402    0.0000 C   0  0  0  0  0  0  0  0  0  0  0  0
   -5.4627    1.9520    0.0000 C   0  0  0  0  0  0  0  0  0  0  0  0
   -6.4664    0.8373    0.0000 C   0  0  0  0  0  0  0  0  0  0  0  0
   -6.0029   -0.5893    0.0000 C   0  0  0  0  0  0  0  0  0  0  0  0
   -7.0066   -1.7040    0.0000 F   0  0  0  0  0  0  0  0  0  0  0  0
   -4.5356   -0.9012    0.0000 C   0  0  0  0  0  0  0  0  0  0  0  0
   -3.5320    0.2136    0.0000 C   0  0  0  0  0  0  0  0  0  0  0  0
   -3.3037    4.2221    0.0000 N   0  0  0  0  0  0  0  0  0  0  0  0
   -2.0046    4.9721    0.0000 C   0  0  0  0  0  0  0  0  0  0  0  0
   -0.8899    3.9684    0.0000 N   0  0  0  0  0  0  0  0  0  0  0  0
    0.5773    4.2803    0.0000 C   0  0  0  0  0  0  0  0  0  0  0  0
    1.5810    3.1655    0.0000 C   0  0  0  0  0  0  0  0  0  0  0  0
    3.0482    3.4774    0.0000 C   0  0  0  0  0  0  0  0  0  0  0  0
    3.5118    4.9040    0.0000 C   0  0  0  0  0  0  0  0  0  0  0  0
    4.9790    5.2159    0.0000 O   0  0  0  0  0  0  0  0  0  0  0  0
    2.5081    6.0187    0.0000 C   0  0  0  0  0  0  0  0  0  0  0  0
    1.0409    5.7068    0.0000 C   0  0  0  0  0  0  0  0  0  0  0  0
    0.7500    1.2990    0.0000 N   0  0  0  0  0  0  0  0  0  0  0  0
  1  2  1  0
  2  3  2  0
  3  4  1  0
  4  5  2  0
  5  6  1  0
  6  7  1  0
  7  8  2  0
  8  9  1  0
  9 10  2  0
 10 11  1  0
 11 12  2  0
 12 13  1  0
 12 14  1  0
 14 15  2  0
  8 16  1  0
 16 17  2  0
 17 18  1  0
 18 19  1  0
 19 20  1  0
 20 21  1  0
 21 22  1  0
 22 23  1  0
 22 24  1  0
 24 25  1  0
  6 26  2  0
 26  2  1  0
 18  7  1  0
 25 19  1  0
 15  9  1  0
M  END
>  <Compound_ID>  (547) 
CHEMBL1888586

>  <Molecule Name>  (547) 
nan

>  <Molecular Weight>  (547) 
353.4

>  <AlogP>  (547) 
3.20

>  <Smiles>  (547) 
Nc1nccc(-c2c(-c3ccc(F)cc3)ncn2C2CCC(O)CC2)n1

>  <Standard Type>  (547) 
Inhibition

>  <Standard Relation>  (547) 
'='

>  <Standard Units>  (547) 
%

>  <Standard Value>  (547) 
-1.99

>  <Assay ChEMBL ID>  (547) 
CHEMBL1962174

>  <Assay Description>  (547) 
GSK_PKIS: SYK mean inhibition at 0.1 uM [Nanosyn]

>  <BAO Format ID>  (547) 
BAO_0000357

>  <BAO Label>  (547) 
single protein format

>  <Assay Organism>  (547) 
None

>  <Target ChEMBL ID>  (547) 
CHEMBL2599

>  <Target Name>  (547) 
Tyrosine-protein kinase SYK

>  <Target Organism>  (547) 
Homo sapiens

>  <Target Type>  (547) 
SINGLE PROTEIN

>  <Document ChEMBL ID>  (547) 
CHEMBL1961873

>  <Source Description>  (547) 
GSK Published Kinase Inhibitor Set

>  <Document Journal>  (547) 
nan

>  <Document Year>  (547) 
nan

>  <Active>  (547) 
0.0

>  <bits>  (547) 
<rdkit.DataStructs.cDataStructs.ExplicitBitVect object at 0x00000193F33EA7A0>

>  <Group>  (547) 
G2

$$$$

     RDKit          2D

 30 34  0  0  0  0  0  0  0  0999 V2000
    3.7500   -1.2990    0.0000 C   0  0  0  0  0  0  0  0  0  0  0  0
    3.0000    0.0000    0.0000 N   0  0  0  0  0  0  0  0  0  0  0  0
    3.7500    1.2990    0.0000 C   0  0  0  0  0  0  0  0  0  0  0  0
    1.5000    0.0000    0.0000 C   0  0  0  0  0  0  0  0  0  0  0  0
    0.7500   -1.2990    0.0000 C   0  0  0  0  0  0  0  0  0  0  0  0
   -0.7500   -1.2990    0.0000 C   0  0  0  0  0  0  0  0  0  0  0  0
   -1.5000   -2.5981    0.0000 C   0  0  0  0  0  0  0  0  0  0  0  0
   -0.7500   -3.8971    0.0000 N   0  0  0  0  0  0  0  0  0  0  0  0
   -1.5000   -5.1962    0.0000 C   0  0  0  0  0  0  0  0  0  0  0  0
   -3.0000   -5.1962    0.0000 C   0  0  0  0  0  0  0  0  0  0  0  0
   -3.7500   -6.4952    0.0000 C   0  0  0  0  0  0  0  0  0  0  0  0
   -3.0000   -7.7942    0.0000 C   0  0  0  0  0  0  0  0  0  0  0  0
   -1.5000   -7.7942    0.0000 C   0  0  0  0  0  0  0  0  0  0  0  0
   -1.0365   -9.2208    0.0000 C   0  0  0  0  0  0  0  0  0  0  0  0
   -2.2500  -10.1025    0.0000 N   0  0  0  0  0  0  0  0  0  0  0  0
   -3.4635   -9.2208    0.0000 N   0  0  0  0  0  0  0  0  0  0  0  0
   -4.8901   -9.6843    0.0000 C   0  0  0  0  0  0  0  0  0  0  0  0
   -5.2020  -11.1516    0.0000 C   0  0  0  0  0  0  0  0  0  0  0  0
   -6.6286  -11.6151    0.0000 C   0  0  0  0  0  0  0  0  0  0  0  0
   -6.9404  -13.0823    0.0000 C   0  0  0  0  0  0  0  0  0  0  0  0
   -5.8257  -14.0860    0.0000 C   0  0  0  0  0  0  0  0  0  0  0  0
   -4.3991  -13.6225    0.0000 C   0  0  0  0  0  0  0  0  0  0  0  0
   -4.0873  -12.1553    0.0000 C   0  0  0  0  0  0  0  0  0  0  0  0
   -0.7500   -6.4952    0.0000 C   0  0  0  0  0  0  0  0  0  0  0  0
   -3.0000   -2.5981    0.0000 N   0  0  0  0  0  0  0  0  0  0  0  0
   -3.7500   -1.2990    0.0000 C   0  0  0  0  0  0  0  0  0  0  0  0
   -3.0000    0.0000    0.0000 N   0  0  0  0  0  0  0  0  0  0  0  0
   -1.5000    0.0000    0.0000 C   0  0  0  0  0  0  0  0  0  0  0  0
   -0.7500    1.2990    0.0000 C   0  0  0  0  0  0  0  0  0  0  0  0
    0.7500    1.2990    0.0000 N   0  0  0  0  0  0  0  0  0  0  0  0
  1  2  1  0
  2  3  1  0
  2  4  1  0
  4  5  2  0
  5  6  1  0
  6  7  2  0
  7  8  1  0
  8  9  1  0
  9 10  2  0
 10 11  1  0
 11 12  2  0
 12 13  1  0
 13 14  1  0
 14 15  2  0
 15 16  1  0
 16 17  1  0
 17 18  1  0
 18 19  2  0
 19 20  1  0
 20 21  2  0
 21 22  1  0
 22 23  2  0
 13 24  2  0
  7 25  1  0
 25 26  2  0
 26 27  1  0
 27 28  2  0
 28 29  1  0
 29 30  2  0
 30  4  1  0
 28  6  1  0
 24  9  1  0
 16 12  1  0
 23 18  1  0
M  END
>  <Compound_ID>  (548) 
CHEMBL30432

>  <Molecule Name>  (548) 
GW282974X

>  <Molecular Weight>  (548) 
395.47

>  <AlogP>  (548) 
4.23

>  <Smiles>  (548) 
CN(C)c1cc2c(Nc3ccc4c(cnn4Cc4ccccc4)c3)ncnc2cn1

>  <Standard Type>  (548) 
Inhibition

>  <Standard Relation>  (548) 
'='

>  <Standard Units>  (548) 
%

>  <Standard Value>  (548) 
0.89

>  <Assay ChEMBL ID>  (548) 
CHEMBL1962174

>  <Assay Description>  (548) 
GSK_PKIS: SYK mean inhibition at 0.1 uM [Nanosyn]

>  <BAO Format ID>  (548) 
BAO_0000357

>  <BAO Label>  (548) 
single protein format

>  <Assay Organism>  (548) 
None

>  <Target ChEMBL ID>  (548) 
CHEMBL2599

>  <Target Name>  (548) 
Tyrosine-protein kinase SYK

>  <Target Organism>  (548) 
Homo sapiens

>  <Target Type>  (548) 
SINGLE PROTEIN

>  <Document ChEMBL ID>  (548) 
CHEMBL1961873

>  <Source Description>  (548) 
GSK Published Kinase Inhibitor Set

>  <Document Journal>  (548) 
nan

>  <Document Year>  (548) 
nan

>  <Active>  (548) 
0.0

>  <bits>  (548) 
<rdkit.DataStructs.cDataStructs.ExplicitBitVect object at 0x00000193F33E9BD0>

>  <Group>  (548) 
G2

$$$$

     RDKit          2D

 53 56  0  0  0  0  0  0  0  0999 V2000
   -9.0933  -10.3573    0.0000 C   0  0  0  0  0  0  0  0  0  0  0  0
   -7.7942   -9.6073    0.0000 C   0  0  0  0  0  0  0  0  0  0  0  0
   -7.7942   -8.1073    0.0000 O   0  0  0  0  0  0  0  0  0  0  0  0
   -6.4952  -10.3573    0.0000 O   0  0  0  0  0  0  0  0  0  0  0  0
   -5.1962   -9.6073    0.0000 C   0  0  0  0  0  0  0  0  0  0  0  0
   -3.8971  -10.3573    0.0000 C   0  0  0  0  0  0  0  0  0  0  0  0
   -2.5981   -9.6073    0.0000 O   0  0  0  0  0  0  0  0  0  0  0  0
   -1.2990  -10.3573    0.0000 C   0  0  0  0  0  0  0  0  0  0  0  0
   -0.0000   -9.6073    0.0000 O   0  0  0  0  0  0  0  0  0  0  0  0
   -0.0000   -8.1073    0.0000 C   0  0  0  0  0  0  0  0  0  0  0  0
    1.2990   -7.3573    0.0000 C   0  0  0  0  0  0  0  0  0  0  0  0
    2.5981   -8.1073    0.0000 O   0  0  0  0  0  0  0  0  0  0  0  0
    3.8971   -7.3573    0.0000 C   0  0  0  0  0  0  0  0  0  0  0  0
    5.1962   -8.1073    0.0000 C   0  0  0  0  0  0  0  0  0  0  0  0
    3.8971   -5.8573    0.0000 O   0  0  0  0  0  0  0  0  0  0  0  0
    1.2990   -5.8573    0.0000 C   0  0  0  0  0  0  0  0  0  0  0  0
    2.5981   -5.1073    0.0000 O   0  0  0  0  0  0  0  0  0  0  0  0
    2.5981   -3.6073    0.0000 C   0  0  0  0  0  0  0  0  0  0  0  0
    3.8971   -2.8573    0.0000 C   0  0  0  0  0  0  0  0  0  0  0  0
    2.0247   -3.0535    0.0000 O   0  0  0  0  0  0  0  0  0  0  0  0
   -0.0000   -5.1073    0.0000 C   0  0  0  0  0  0  0  0  0  0  0  0
   -0.0000   -3.6073    0.0000 N   0  0  0  0  0  0  0  0  0  0  0  0
    1.2135   -2.7256    0.0000 Se  0  0  0  0  0  2  0  0  0  0  0  0
    0.7500   -1.2990    0.0000 C   0  0  0  0  0  0  0  0  0  0  0  0
    1.5000    0.0000    0.0000 C   0  0  0  0  0  0  0  0  0  0  0  0
    0.7500    1.2990    0.0000 C   0  0  0  0  0  0  0  0  0  0  0  0
   -0.7500    1.2990    0.0000 C   0  0  0  0  0  0  0  0  0  0  0  0
   -1.5000    0.0000    0.0000 C   0  0  0  0  0  0  0  0  0  0  0  0
   -0.7500   -1.2990    0.0000 C   0  0  0  0  0  0  0  0  0  0  0  0
   -1.2135   -2.7256    0.0000 C   0  0  0  0  0  0  0  0  0  0  0  0
   -2.6401   -3.1891    0.0000 O   0  0  0  0  0  0  0  0  0  0  0  0
   -1.2990   -5.8573    0.0000 O   0  0  0  0  0  0  0  0  0  0  0  0
   -1.2990   -7.3573    0.0000 C   0  0  0  0  0  0  0  0  0  0  0  0
   -2.5981   -8.1073    0.0000 C   0  0  0  0  0  0  0  0  0  0  0  0
   -3.8971   -7.3573    0.0000 O   0  0  0  0  0  0  0  0  0  0  0  0
   -5.1962   -8.1073    0.0000 C   0  0  0  0  0  0  0  0  0  0  0  0
   -6.4952   -7.3573    0.0000 C   0  0  0  0  0  0  0  0  0  0  0  0
   -5.5591   -9.5627    0.0000 O   0  0  0  0  0  0  0  0  0  0  0  0
   -1.2990  -11.8573    0.0000 C   0  0  0  0  0  0  0  0  0  0  0  0
   -0.0000  -12.6073    0.0000 O   0  0  0  0  0  0  0  0  0  0  0  0
   -0.0000  -14.1073    0.0000 C   0  0  0  0  0  0  0  0  0  0  0  0
    1.2990  -14.8573    0.0000 C   0  0  0  0  0  0  0  0  0  0  0  0
   -1.2990  -14.8573    0.0000 O   0  0  0  0  0  0  0  0  0  0  0  0
   -2.5981  -12.6073    0.0000 C   0  0  0  0  0  0  0  0  0  0  0  0
   -2.5981  -14.1073    0.0000 O   0  0  0  0  0  0  0  0  0  0  0  0
   -3.8971  -14.8573    0.0000 C   0  0  0  0  0  0  0  0  0  0  0  0
   -3.8971  -16.3573    0.0000 C   0  0  0  0  0  0  0  0  0  0  0  0
   -5.1962  -14.1073    0.0000 O   0  0  0  0  0  0  0  0  0  0  0  0
   -3.8971  -11.8573    0.0000 C   0  0  0  0  0  0  0  0  0  0  0  0
   -5.1962  -12.6073    0.0000 O   0  0  0  0  0  0  0  0  0  0  0  0
   -6.4952  -11.8573    0.0000 C   0  0  0  0  0  0  0  0  0  0  0  0
   -7.7942  -12.6073    0.0000 C   0  0  0  0  0  0  0  0  0  0  0  0
   -6.8582  -10.4019    0.0000 O   0  0  0  0  0  0  0  0  0  0  0  0
  1  2  1  0
  2  3  2  0
  2  4  1  0
  4  5  1  0
  6  5  1  1
  6  7  1  0
  7  8  1  0
  8  9  1  1
 10  9  1  6
 10 11  1  0
 11 12  1  1
 12 13  1  0
 13 14  1  0
 13 15  2  0
 11 16  1  0
 16 17  1  6
 17 18  1  0
 18 19  1  0
 18 20  2  0
 16 21  1  0
 21 22  1  1
 22 23  1  0
 23 24  1  0
 24 25  2  0
 25 26  1  0
 26 27  2  0
 27 28  1  0
 28 29  2  0
 29 30  1  0
 30 31  2  0
 21 32  1  0
 32 33  1  0
 33 34  1  1
 34 35  1  0
 35 36  1  0
 36 37  1  0
 36 38  2  0
  8 39  1  0
 39 40  1  6
 40 41  1  0
 41 42  1  0
 41 43  2  0
 39 44  1  0
 44 45  1  1
 45 46  1  0
 46 47  1  0
 46 48  2  0
 44 49  1  0
 49 50  1  1
 50 51  1  0
 51 52  1  0
 51 53  2  0
 49  6  1  0
 33 10  1  0
 30 22  1  0
 29 24  1  0
M  END
>  <Compound_ID>  (549) 
CHEMBL1940993

>  <Molecule Name>  (549) 
nan

>  <Molecular Weight>  (549) 
816.62

>  <AlogP>  (549) 
None

>  <Smiles>  (549) 
CC(=O)OC[C@H]1O[C@@H](O[C@H]2[C@H](OC(C)=O)[C@@H](OC(C)=O)[C@H](n3[se]c4ccccc4c3=O)O[C@@H]2COC(C)=O)[C@H](OC(C)=O)[C@@H](OC(C)=O)[C@H]1OC(C)=O

>  <Standard Type>  (549) 
Inhibition

>  <Standard Relation>  (549) 
'='

>  <Standard Units>  (549) 
%

>  <Standard Value>  (549) 
0.0

>  <Assay ChEMBL ID>  (549) 
CHEMBL1943940

>  <Assay Description>  (549) 
Inhibition of SYK at 1 uM

>  <BAO Format ID>  (549) 
BAO_0000357

>  <BAO Label>  (549) 
single protein format

>  <Assay Organism>  (549) 
None

>  <Target ChEMBL ID>  (549) 
CHEMBL2599

>  <Target Name>  (549) 
Tyrosine-protein kinase SYK

>  <Target Organism>  (549) 
Homo sapiens

>  <Target Type>  (549) 
SINGLE PROTEIN

>  <Document ChEMBL ID>  (549) 
CHEMBL1938284

>  <Source Description>  (549) 
Scientific Literature

>  <Document Journal>  (549) 
Eur J Med Chem

>  <Document Year>  (549) 
2012.0

>  <Active>  (549) 
0.0

>  <bits>  (549) 
<rdkit.DataStructs.cDataStructs.ExplicitBitVect object at 0x00000193F33EBC30>

>  <Group>  (549) 
G2

$$$$

     RDKit          2D

 35 39  0  0  0  0  0  0  0  0999 V2000
    1.9775   -9.6721    0.0000 C   0  0  0  0  0  0  0  0  0  0  0  0
    3.3478   -9.0619    0.0000 C   0  0  0  0  0  0  0  0  0  0  0  0
    4.5613   -9.9436    0.0000 C   0  0  0  0  0  0  0  0  0  0  0  0
    3.5046   -7.5702    0.0000 N   0  0  0  0  0  0  0  0  0  0  0  0
    2.3899   -6.5665    0.0000 N   0  0  0  0  0  0  0  0  0  0  0  0
    3.0000   -5.1962    0.0000 C   0  0  0  0  0  0  0  0  0  0  0  0
    2.2500   -3.8971    0.0000 C   0  0  0  0  0  0  0  0  0  0  0  0
    1.5000   -2.5981    0.0000 C   0  0  0  0  0  0  0  0  0  0  0  0
    0.7500   -1.2990    0.0000 C   0  0  0  0  0  0  0  0  0  0  0  0
    1.5000    0.0000    0.0000 C   0  0  0  0  0  0  0  0  0  0  0  0
    0.7500    1.2990    0.0000 C   0  0  0  0  0  0  0  0  0  0  0  0
   -0.7500    1.2990    0.0000 C   0  0  0  0  0  0  0  0  0  0  0  0
   -1.5000    0.0000    0.0000 C   0  0  0  0  0  0  0  0  0  0  0  0
   -3.0000    0.0000    0.0000 C   0  0  0  0  0  0  0  0  0  0  0  0
   -3.7500   -1.2990    0.0000 C   0  0  0  0  0  0  0  0  0  0  0  0
   -5.2500   -1.2990    0.0000 C   0  0  0  0  0  0  0  0  0  0  0  0
   -6.0000    0.0000    0.0000 C   0  0  0  0  0  0  0  0  0  0  0  0
   -7.5000    0.0000    0.0000 C   0  0  0  0  0  0  0  0  0  0  0  0
   -8.2500   -1.2990    0.0000 C   0  0  0  0  0  0  0  0  0  0  0  0
   -7.5000   -2.5981    0.0000 C   0  0  0  0  0  0  0  0  0  0  0  0
   -8.2500   -3.8971    0.0000 C   0  0  0  0  0  0  0  0  0  0  0  0
   -9.0000   -5.1962    0.0000 F   0  0  0  0  0  0  0  0  0  0  0  0
   -9.5490   -3.1471    0.0000 F   0  0  0  0  0  0  0  0  0  0  0  0
   -6.9510   -4.6471    0.0000 F   0  0  0  0  0  0  0  0  0  0  0  0
   -6.0000   -2.5981    0.0000 C   0  0  0  0  0  0  0  0  0  0  0  0
   -3.0000   -2.5981    0.0000 N   0  0  0  0  0  0  0  0  0  0  0  0
   -1.5000   -2.5981    0.0000 C   0  0  0  0  0  0  0  0  0  0  0  0
   -0.7500   -1.2990    0.0000 C   0  0  0  0  0  0  0  0  0  0  0  0
    4.4918   -5.3529    0.0000 C   0  0  0  0  0  0  0  0  0  0  0  0
    5.6065   -4.3492    0.0000 C   0  0  0  0  0  0  0  0  0  0  0  0
    5.2946   -2.8820    0.0000 N   0  0  0  0  0  0  0  0  0  0  0  0
    7.0331   -4.8128    0.0000 N   0  0  0  0  0  0  0  0  0  0  0  0
    7.3450   -6.2800    0.0000 C   0  0  0  0  0  0  0  0  0  0  0  0
    6.2302   -7.2837    0.0000 N   0  0  0  0  0  0  0  0  0  0  0  0
    4.8037   -6.8202    0.0000 C   0  0  0  0  0  0  0  0  0  0  0  0
  1  2  1  0
  2  3  1  0
  2  4  1  0
  4  5  1  0
  5  6  2  0
  6  7  1  0
  7  8  3  0
  8  9  1  0
  9 10  2  0
 10 11  1  0
 11 12  2  0
 12 13  1  0
 13 14  2  0
 14 15  1  0
 15 16  1  0
 16 17  2  0
 17 18  1  0
 18 19  2  0
 19 20  1  0
 20 21  1  0
 21 22  1  0
 21 23  1  0
 21 24  1  0
 20 25  2  0
 15 26  2  0
 26 27  1  0
 27 28  2  0
  6 29  1  0
 29 30  2  0
 30 31  1  0
 30 32  1  0
 32 33  2  0
 33 34  1  0
 34 35  2  0
 35  4  1  0
 28  9  1  0
 35 29  1  0
 28 13  1  0
 25 16  1  0
M  END
>  <Compound_ID>  (550) 
CHEMBL4247506

>  <Molecule Name>  (550) 
nan

>  <Molecular Weight>  (550) 
472.47

>  <AlogP>  (550) 
5.62

>  <Smiles>  (550) 
CC(C)n1nc(C#Cc2cccc3cc(-c4cccc(C(F)(F)F)c4)ncc23)c2c(N)ncnc21

>  <Standard Type>  (550) 
Inhibition

>  <Standard Relation>  (550) 
'='

>  <Standard Units>  (550) 
%

>  <Standard Value>  (550) 
6.0

>  <Assay ChEMBL ID>  (550) 
CHEMBL4230234

>  <Assay Description>  (550) 
Inhibition of SYK (unknown origin) at 1 uM by mobility shift microfluidics platform based assay relative to control

>  <BAO Format ID>  (550) 
BAO_0000357

>  <BAO Label>  (550) 
single protein format

>  <Assay Organism>  (550) 
Homo sapiens

>  <Target ChEMBL ID>  (550) 
CHEMBL2599

>  <Target Name>  (550) 
Tyrosine-protein kinase SYK

>  <Target Organism>  (550) 
Homo sapiens

>  <Target Type>  (550) 
SINGLE PROTEIN

>  <Document ChEMBL ID>  (550) 
CHEMBL4229333

>  <Source Description>  (550) 
Scientific Literature

>  <Document Journal>  (550) 
Eur J Med Chem

>  <Document Year>  (550) 
2018.0

>  <Active>  (550) 
0.0

>  <bits>  (550) 
<rdkit.DataStructs.cDataStructs.ExplicitBitVect object at 0x00000193F33E8660>

>  <Group>  (550) 
G2

$$$$

     RDKit          2D

 22 23  0  0  0  0  0  0  0  0999 V2000
    3.0000    0.0000    0.0000 C   0  0  0  0  0  0  0  0  0  0  0  0
    1.5000    0.0000    0.0000 C   0  0  0  0  0  0  0  0  0  0  0  0
    0.7500   -1.2990    0.0000 C   0  0  0  0  0  0  0  0  0  0  0  0
   -0.7500   -1.2990    0.0000 C   0  0  0  0  0  0  0  0  0  0  0  0
   -1.5000   -2.5981    0.0000 O   0  0  0  0  0  0  0  0  0  0  0  0
   -1.5000    0.0000    0.0000 C   0  0  0  0  0  0  0  0  0  0  0  0
   -0.7500    1.2990    0.0000 C   0  0  0  0  0  0  0  0  0  0  0  0
   -1.5000    2.5981    0.0000 C   0  0  0  0  0  0  0  0  0  0  0  0
    0.7500    1.2990    0.0000 C   0  0  0  0  0  0  0  0  0  0  0  0
    1.5000    2.5981    0.0000 C   0  0  0  0  0  0  0  0  0  0  0  0
    3.0000    2.5981    0.0000 C   0  0  0  0  0  0  0  0  0  0  0  0
    3.7500    3.8971    0.0000 C   0  0  0  0  0  0  0  0  0  0  0  0
    5.2500    3.8971    0.0000 C   0  0  0  0  0  0  0  0  0  0  0  0
    6.0000    5.1962    0.0000 N   0  0  0  0  0  0  0  0  0  0  0  0
    5.2500    6.4952    0.0000 C   0  0  0  0  0  0  0  0  0  0  0  0
    3.7500    6.4952    0.0000 C   0  0  0  0  0  0  0  0  0  0  0  0
    3.0000    7.7942    0.0000 C   0  0  0  0  0  0  0  0  0  0  0  0
    1.5000    7.7942    0.0000 O   0  0  0  0  0  0  0  0  0  0  0  0
    3.7500    9.0933    0.0000 N   0  0  0  0  0  0  0  0  0  0  0  0
    3.0000   10.3923    0.0000 C   0  0  0  0  0  0  0  0  0  0  0  0
    5.2500    9.0933    0.0000 C   0  0  0  0  0  0  0  0  0  0  0  0
    3.0000    5.1962    0.0000 C   0  0  0  0  0  0  0  0  0  0  0  0
  1  2  1  0
  2  3  2  0
  3  4  1  0
  4  5  1  0
  4  6  2  0
  6  7  1  0
  7  8  1  0
  7  9  2  0
  9 10  1  0
 10 11  2  0
 11 12  1  0
 12 13  2  0
 13 14  1  0
 14 15  2  0
 15 16  1  0
 16 17  1  0
 17 18  2  0
 17 19  1  0
 19 20  1  0
 19 21  1  0
 16 22  2  0
  9  2  1  0
 22 12  1  0
M  END
>  <Compound_ID>  (551) 
CHEMBL220244

>  <Molecule Name>  (551) 
GW427984X

>  <Molecular Weight>  (551) 
296.37

>  <AlogP>  (551) 
3.28

>  <Smiles>  (551) 
Cc1cc(O)cc(C)c1/C=C/c1cncc(C(=O)N(C)C)c1

>  <Standard Type>  (551) 
Inhibition

>  <Standard Relation>  (551) 
'='

>  <Standard Units>  (551) 
%

>  <Standard Value>  (551) 
2.96

>  <Assay ChEMBL ID>  (551) 
CHEMBL1962175

>  <Assay Description>  (551) 
GSK_PKIS: SYK mean inhibition at 1 uM [Nanosyn]

>  <BAO Format ID>  (551) 
BAO_0000357

>  <BAO Label>  (551) 
single protein format

>  <Assay Organism>  (551) 
None

>  <Target ChEMBL ID>  (551) 
CHEMBL2599

>  <Target Name>  (551) 
Tyrosine-protein kinase SYK

>  <Target Organism>  (551) 
Homo sapiens

>  <Target Type>  (551) 
SINGLE PROTEIN

>  <Document ChEMBL ID>  (551) 
CHEMBL1961873

>  <Source Description>  (551) 
GSK Published Kinase Inhibitor Set

>  <Document Journal>  (551) 
nan

>  <Document Year>  (551) 
nan

>  <Active>  (551) 
0.0

>  <bits>  (551) 
<rdkit.DataStructs.cDataStructs.ExplicitBitVect object at 0x00000193F33E9C40>

>  <Group>  (551) 
G2

$$$$

     RDKit          2D

 32 35  0  0  0  0  0  0  0  0999 V2000
    8.2500   -3.8971    0.0000 C   0  0  0  0  0  0  0  0  0  0  0  0
    7.5000   -2.5981    0.0000 O   0  0  0  0  0  0  0  0  0  0  0  0
    6.0000   -2.5981    0.0000 C   0  0  0  0  0  0  0  0  0  0  0  0
    5.2500   -1.2990    0.0000 C   0  0  0  0  0  0  0  0  0  0  0  0
    3.7500   -1.2990    0.0000 N   0  0  0  0  0  0  0  0  0  0  0  0
    3.0000    0.0000    0.0000 C   0  0  0  0  0  0  0  0  0  0  0  0
    3.7500    1.2990    0.0000 O   0  0  0  0  0  0  0  0  0  0  0  0
    1.5000    0.0000    0.0000 C   0  0  0  0  0  0  0  0  0  0  0  0
    0.7500   -1.2990    0.0000 C   0  0  0  0  0  0  0  0  0  0  0  0
   -0.7500   -1.2990    0.0000 C   0  0  0  0  0  0  0  0  0  0  0  0
   -1.5000    0.0000    0.0000 C   0  0  0  0  0  0  0  0  0  0  0  0
   -0.7500    1.2990    0.0000 C   0  0  0  0  0  0  0  0  0  0  0  0
    0.7500    1.2990    0.0000 C   0  0  0  0  0  0  0  0  0  0  0  0
   -1.7537    2.4138    0.0000 N   0  0  0  0  0  0  0  0  0  0  0  0
   -3.1240    1.8037    0.0000 C   0  0  0  0  0  0  0  0  0  0  0  0
   -4.4231    2.5537    0.0000 C   0  0  0  0  0  0  0  0  0  0  0  0
   -5.7934    1.9435    0.0000 C   0  0  0  0  0  0  0  0  0  0  0  0
   -6.7971    3.0583    0.0000 N   0  0  0  0  0  0  0  0  0  0  0  0
   -6.0471    4.3573    0.0000 C   0  0  0  0  0  0  0  0  0  0  0  0
   -6.6572    5.7276    0.0000 C   0  0  0  0  0  0  0  0  0  0  0  0
   -5.7755    6.9411    0.0000 C   0  0  0  0  0  0  0  0  0  0  0  0
   -6.3856    8.3115    0.0000 C   0  0  0  0  0  0  0  0  0  0  0  0
   -7.8774    8.4683    0.0000 C   0  0  0  0  0  0  0  0  0  0  0  0
   -8.4875    9.8386    0.0000 Cl  0  0  0  0  0  0  0  0  0  0  0  0
   -8.7591    7.2547    0.0000 C   0  0  0  0  0  0  0  0  0  0  0  0
   -8.1490    5.8844    0.0000 C   0  0  0  0  0  0  0  0  0  0  0  0
   -4.5798    4.0454    0.0000 N   0  0  0  0  0  0  0  0  0  0  0  0
   -2.9672    0.3119    0.0000 N   0  0  0  0  0  0  0  0  0  0  0  0
   -4.0819   -0.6918    0.0000 C   0  0  0  0  0  0  0  0  0  0  0  0
   -3.7701   -2.1590    0.0000 C   0  0  0  0  0  0  0  0  0  0  0  0
   -4.8848   -3.1627    0.0000 O   0  0  0  0  0  0  0  0  0  0  0  0
   -4.5729   -4.6300    0.0000 C   0  0  0  0  0  0  0  0  0  0  0  0
  1  2  1  0
  2  3  1  0
  3  4  1  0
  4  5  1  0
  5  6  1  0
  6  7  2  0
  6  8  1  0
  8  9  2  0
  9 10  1  0
 10 11  2  0
 11 12  1  0
 12 13  2  0
 12 14  1  0
 14 15  2  0
 15 16  1  0
 16 17  2  0
 17 18  1  0
 18 19  2  0
 19 20  1  0
 20 21  2  0
 21 22  1  0
 22 23  2  0
 23 24  1  0
 23 25  1  0
 25 26  2  0
 19 27  1  0
 15 28  1  0
 28 29  1  0
 29 30  1  0
 30 31  1  0
 31 32  1  0
 13  8  1  0
 27 16  1  0
 28 11  1  0
 26 20  1  0
M  END
>  <Compound_ID>  (552) 
CHEMBL3628628

>  <Molecule Name>  (552) 
nan

>  <Molecular Weight>  (552) 
453.93

>  <AlogP>  (552) 
3.77

>  <Smiles>  (552) 
COCCNC(=O)c1ccc2c(c1)nc(-c1cnc(-c3ccc(Cl)cc3)[nH]1)n2CCOC

>  <Standard Type>  (552) 
Inhibition

>  <Standard Relation>  (552) 
'='

>  <Standard Units>  (552) 
%

>  <Standard Value>  (552) 
5.53

>  <Assay ChEMBL ID>  (552) 
CHEMBL3631488

>  <Assay Description>  (552) 
Inhibition of SYK (unknown origin) at 10 uM after 120 mins P33 radiolabeled kinase activity assay

>  <BAO Format ID>  (552) 
BAO_0000357

>  <BAO Label>  (552) 
single protein format

>  <Assay Organism>  (552) 
Homo sapiens

>  <Target ChEMBL ID>  (552) 
CHEMBL2599

>  <Target Name>  (552) 
Tyrosine-protein kinase SYK

>  <Target Organism>  (552) 
Homo sapiens

>  <Target Type>  (552) 
SINGLE PROTEIN

>  <Document ChEMBL ID>  (552) 
CHEMBL3627608

>  <Source Description>  (552) 
Scientific Literature

>  <Document Journal>  (552) 
Bioorg Med Chem

>  <Document Year>  (552) 
2015.0

>  <Active>  (552) 
0.0

>  <bits>  (552) 
<rdkit.DataStructs.cDataStructs.ExplicitBitVect object at 0x00000193F33E95B0>

>  <Group>  (552) 
G2

$$$$

     RDKit          2D

 32 35  0  0  0  0  0  0  0  0999 V2000
   -2.5981   -8.1073    0.0000 C   0  0  0  0  0  0  0  0  0  0  0  0
   -1.2990   -7.3573    0.0000 O   0  0  0  0  0  0  0  0  0  0  0  0
   -1.2990   -5.8573    0.0000 C   0  0  0  0  0  0  0  0  0  0  0  0
   -2.5981   -5.1073    0.0000 O   0  0  0  0  0  0  0  0  0  0  0  0
   -0.0000   -5.1073    0.0000 N   0  0  0  0  0  0  0  0  0  0  0  0
   -0.0000   -3.6073    0.0000 C   0  0  0  0  0  0  0  0  0  0  0  0
    1.2135   -2.7256    0.0000 N   0  0  0  0  0  0  0  0  0  0  0  0
    0.7500   -1.2990    0.0000 C   0  0  0  0  0  0  0  0  0  0  0  0
    1.5000    0.0000    0.0000 C   0  0  0  0  0  0  0  0  0  0  0  0
    0.7500    1.2990    0.0000 C   0  0  0  0  0  0  0  0  0  0  0  0
    1.5000    2.5981    0.0000 O   0  0  0  0  0  0  0  0  0  0  0  0
    3.0000    2.5981    0.0000 C   0  0  0  0  0  0  0  0  0  0  0  0
    3.7500    1.2990    0.0000 C   0  0  0  0  0  0  0  0  0  0  0  0
    5.2500    1.2990    0.0000 C   0  0  0  0  0  0  0  0  0  0  0  0
    6.0000    2.5981    0.0000 C   0  0  0  0  0  0  0  0  0  0  0  0
    7.5000    2.5981    0.0000 N   0  0  0  0  0  0  0  0  0  0  0  0
    8.2500    1.2990    0.0000 C   0  0  0  0  0  0  0  0  0  0  0  0
    7.5000   -0.0000    0.0000 O   0  0  0  0  0  0  0  0  0  0  0  0
    9.7500    1.2990    0.0000 N   0  0  0  0  0  0  0  0  0  0  0  0
   10.5000   -0.0000    0.0000 C   0  0  0  0  0  0  0  0  0  0  0  0
    9.7500   -1.2990    0.0000 C   0  0  0  0  0  0  0  0  0  0  0  0
   10.5000   -2.5981    0.0000 C   0  0  0  0  0  0  0  0  0  0  0  0
   12.0000   -2.5981    0.0000 C   0  0  0  0  0  0  0  0  0  0  0  0
   12.7500   -1.2990    0.0000 C   0  0  0  0  0  0  0  0  0  0  0  0
   14.2500   -1.2990    0.0000 Br  0  0  0  0  0  0  0  0  0  0  0  0
   12.0000   -0.0000    0.0000 C   0  0  0  0  0  0  0  0  0  0  0  0
    5.2500    3.8971    0.0000 C   0  0  0  0  0  0  0  0  0  0  0  0
    3.7500    3.8971    0.0000 C   0  0  0  0  0  0  0  0  0  0  0  0
   -0.7500    1.2990    0.0000 C   0  0  0  0  0  0  0  0  0  0  0  0
   -1.5000    0.0000    0.0000 C   0  0  0  0  0  0  0  0  0  0  0  0
   -0.7500   -1.2990    0.0000 C   0  0  0  0  0  0  0  0  0  0  0  0
   -1.2135   -2.7256    0.0000 N   0  0  0  0  0  0  0  0  0  0  0  0
  1  2  1  0
  2  3  1  0
  3  4  2  0
  3  5  1  0
  5  6  1  0
  6  7  2  0
  7  8  1  0
  8  9  2  0
  9 10  1  0
 10 11  1  0
 11 12  1  0
 12 13  2  0
 13 14  1  0
 14 15  2  0
 15 16  1  0
 16 17  1  0
 17 18  2  0
 17 19  1  0
 19 20  1  0
 20 21  2  0
 21 22  1  0
 22 23  2  0
 23 24  1  0
 24 25  1  0
 24 26  2  0
 15 27  1  0
 27 28  2  0
 10 29  2  0
 29 30  1  0
 30 31  2  0
 31 32  1  0
 32  6  1  0
 31  8  1  0
 28 12  1  0
 26 20  1  0
M  END
>  <Compound_ID>  (553) 
CHEMBL1909370

>  <Molecule Name>  (553) 
GW694234A

>  <Molecular Weight>  (553) 
532.78

>  <AlogP>  (553) 
5.94

>  <Smiles>  (553) 
COC(=O)Nc1nc2cc(Oc3ccc(NC(=O)Nc4cccc(Br)c4)cc3)ccc2[nH]1

>  <Standard Type>  (553) 
Inhibition

>  <Standard Relation>  (553) 
'='

>  <Standard Units>  (553) 
%

>  <Standard Value>  (553) 
-1.46

>  <Assay ChEMBL ID>  (553) 
CHEMBL1962174

>  <Assay Description>  (553) 
GSK_PKIS: SYK mean inhibition at 0.1 uM [Nanosyn]

>  <BAO Format ID>  (553) 
BAO_0000357

>  <BAO Label>  (553) 
single protein format

>  <Assay Organism>  (553) 
None

>  <Target ChEMBL ID>  (553) 
CHEMBL2599

>  <Target Name>  (553) 
Tyrosine-protein kinase SYK

>  <Target Organism>  (553) 
Homo sapiens

>  <Target Type>  (553) 
SINGLE PROTEIN

>  <Document ChEMBL ID>  (553) 
CHEMBL1961873

>  <Source Description>  (553) 
GSK Published Kinase Inhibitor Set

>  <Document Journal>  (553) 
nan

>  <Document Year>  (553) 
nan

>  <Active>  (553) 
0.0

>  <bits>  (553) 
<rdkit.DataStructs.cDataStructs.ExplicitBitVect object at 0x00000193F33EA3B0>

>  <Group>  (553) 
G2

$$$$

     RDKit          2D

 17 19  0  0  0  0  0  0  0  0999 V2000
   -2.6401   -3.1891    0.0000 C   0  0  0  0  0  0  0  0  0  0  0  0
   -1.2135   -2.7256    0.0000 C   0  0  0  0  0  0  0  0  0  0  0  0
   -0.0000   -3.6073    0.0000 N   0  0  0  0  0  0  0  0  0  0  0  0
    1.2135   -2.7256    0.0000 N   0  0  0  0  0  0  0  0  0  0  0  0
    0.7500   -1.2990    0.0000 C   0  0  0  0  0  0  0  0  0  0  0  0
    1.5000    0.0000    0.0000 C   0  0  0  0  0  0  0  0  0  0  0  0
    0.7500    1.2990    0.0000 C   0  0  0  0  0  0  0  0  0  0  0  0
   -0.7500    1.2990    0.0000 N   0  0  0  0  0  0  0  0  0  0  0  0
   -1.5000    0.0000    0.0000 C   0  0  0  0  0  0  0  0  0  0  0  0
   -3.0000    0.0000    0.0000 O   0  0  0  0  0  0  0  0  0  0  0  0
   -3.7500    1.2990    0.0000 C   0  0  0  0  0  0  0  0  0  0  0  0
   -3.0000    2.5981    0.0000 C   0  0  0  0  0  0  0  0  0  0  0  0
   -3.7500    3.8971    0.0000 C   0  0  0  0  0  0  0  0  0  0  0  0
   -5.2500    3.8971    0.0000 C   0  0  0  0  0  0  0  0  0  0  0  0
   -6.0000    2.5981    0.0000 C   0  0  0  0  0  0  0  0  0  0  0  0
   -5.2500    1.2990    0.0000 C   0  0  0  0  0  0  0  0  0  0  0  0
   -0.7500   -1.2990    0.0000 C   0  0  0  0  0  0  0  0  0  0  0  0
  1  2  1  0
  2  3  2  0
  3  4  1  0
  4  5  1  0
  5  6  2  0
  6  7  1  0
  7  8  2  0
  8  9  1  0
  9 10  1  0
 10 11  1  0
 11 12  1  0
 12 13  1  0
 13 14  1  0
 14 15  1  0
 15 16  1  0
  9 17  2  0
 17  2  1  0
 17  5  1  0
 16 11  1  0
M  END
>  <Compound_ID>  (554) 
CHEMBL4524629

>  <Molecule Name>  (554) 
nan

>  <Molecular Weight>  (554) 
231.3

>  <AlogP>  (554) 
2.98

>  <Smiles>  (554) 
Cc1n[nH]c2ccnc(OC3CCCCC3)c12

>  <Standard Type>  (554) 
Inhibition

>  <Standard Relation>  (554) 
'='

>  <Standard Units>  (554) 
%

>  <Standard Value>  (554) 
16.0

>  <Assay ChEMBL ID>  (554) 
CHEMBL4331961

>  <Assay Description>  (554) 
Inhibition of SYK (unknown origin) at 10 uM relative to control

>  <BAO Format ID>  (554) 
BAO_0000357

>  <BAO Label>  (554) 
single protein format

>  <Assay Organism>  (554) 
Homo sapiens

>  <Target ChEMBL ID>  (554) 
CHEMBL2599

>  <Target Name>  (554) 
Tyrosine-protein kinase SYK

>  <Target Organism>  (554) 
Homo sapiens

>  <Target Type>  (554) 
SINGLE PROTEIN

>  <Document ChEMBL ID>  (554) 
CHEMBL4330096

>  <Source Description>  (554) 
Scientific Literature

>  <Document Journal>  (554) 
Bioorg Med Chem Lett

>  <Document Year>  (554) 
2019.0

>  <Active>  (554) 
0.0

>  <bits>  (554) 
<rdkit.DataStructs.cDataStructs.ExplicitBitVect object at 0x00000193F33EB7D0>

>  <Group>  (554) 
G2

$$$$

     RDKit          2D

 25 28  0  0  0  0  0  0  0  0999 V2000
   -3.7548   -2.1855    0.0000 O   0  0  0  0  0  0  0  0  0  0  0  0
   -2.6401   -3.1891    0.0000 C   0  0  0  0  0  0  0  0  0  0  0  0
   -2.9520   -4.6564    0.0000 N   0  0  0  0  0  0  0  0  0  0  0  0
   -4.3786   -5.1199    0.0000 C   0  0  0  0  0  0  0  0  0  0  0  0
   -5.4933   -4.1162    0.0000 C   0  0  0  0  0  0  0  0  0  0  0  0
   -6.9199   -4.5797    0.0000 C   0  0  0  0  0  0  0  0  0  0  0  0
   -7.2317   -6.0469    0.0000 C   0  0  0  0  0  0  0  0  0  0  0  0
   -6.1170   -7.0506    0.0000 C   0  0  0  0  0  0  0  0  0  0  0  0
   -4.6904   -6.5871    0.0000 C   0  0  0  0  0  0  0  0  0  0  0  0
   -3.5757   -7.5908    0.0000 Cl  0  0  0  0  0  0  0  0  0  0  0  0
   -1.2135   -2.7256    0.0000 C   0  0  0  0  0  0  0  0  0  0  0  0
   -0.0000   -3.6073    0.0000 C   0  0  0  0  0  0  0  0  0  0  0  0
    1.2135   -2.7256    0.0000 N   0  0  0  0  0  0  0  0  0  0  0  0
    0.7500   -1.2990    0.0000 C   0  0  0  0  0  0  0  0  0  0  0  0
    1.5000    0.0000    0.0000 C   0  0  0  0  0  0  0  0  0  0  0  0
    0.7500    1.2990    0.0000 C   0  0  0  0  0  0  0  0  0  0  0  0
   -0.7500    1.2990    0.0000 C   0  0  0  0  0  0  0  0  0  0  0  0
   -1.5000    2.5981    0.0000 C   0  0  0  0  0  0  0  0  0  0  0  0
   -0.7500    3.8971    0.0000 C   0  0  0  0  0  0  0  0  0  0  0  0
   -1.5000    5.1962    0.0000 C   0  0  0  0  0  0  0  0  0  0  0  0
   -3.0000    5.1962    0.0000 N   0  0  0  0  0  0  0  0  0  0  0  0
   -3.7500    3.8971    0.0000 C   0  0  0  0  0  0  0  0  0  0  0  0
   -3.0000    2.5981    0.0000 C   0  0  0  0  0  0  0  0  0  0  0  0
   -1.5000    0.0000    0.0000 C   0  0  0  0  0  0  0  0  0  0  0  0
   -0.7500   -1.2990    0.0000 N   0  0  0  0  0  0  0  0  0  0  0  0
  1  2  2  0
  2  3  1  0
  3  4  1  0
  4  5  2  0
  5  6  1  0
  6  7  2  0
  7  8  1  0
  8  9  2  0
  9 10  1  0
  2 11  1  0
 11 12  2  0
 12 13  1  0
 13 14  2  0
 14 15  1  0
 15 16  2  0
 16 17  1  0
 17 18  1  0
 18 19  1  0
 19 20  1  0
 20 21  1  0
 21 22  1  0
 22 23  1  0
 17 24  2  0
 24 25  1  0
  9  4  1  0
 25 11  1  0
 25 14  1  0
 23 18  1  0
M  END
>  <Compound_ID>  (555) 
CHEMBL1077739

>  <Molecule Name>  (555) 
nan

>  <Molecular Weight>  (555) 
444.88

>  <AlogP>  (555) 
3.71

>  <Smiles>  (555) 
O=C(Nc1ccccc1Cl)c1cnc2ccc(C3CCNCC3)cn12

>  <Standard Type>  (555) 
Inhibition

>  <Standard Relation>  (555) 
'='

>  <Standard Units>  (555) 
%

>  <Standard Value>  (555) 
-2.0

>  <Assay ChEMBL ID>  (555) 
CHEMBL1111274

>  <Assay Description>  (555) 
Inhibition of SYK at 5 uM

>  <BAO Format ID>  (555) 
BAO_0000357

>  <BAO Label>  (555) 
single protein format

>  <Assay Organism>  (555) 
None

>  <Target ChEMBL ID>  (555) 
CHEMBL2599

>  <Target Name>  (555) 
Tyrosine-protein kinase SYK

>  <Target Organism>  (555) 
Homo sapiens

>  <Target Type>  (555) 
SINGLE PROTEIN

>  <Document ChEMBL ID>  (555) 
CHEMBL1154316

>  <Source Description>  (555) 
Scientific Literature

>  <Document Journal>  (555) 
Bioorg Med Chem Lett

>  <Document Year>  (555) 
2009.0

>  <Active>  (555) 
0.0

>  <bits>  (555) 
<rdkit.DataStructs.cDataStructs.ExplicitBitVect object at 0x00000193F33EA1F0>

>  <Group>  (555) 
G2

$$$$

     RDKit          2D

 35 39  0  0  0  0  0  0  0  0999 V2000
   -3.7500  -11.6913    0.0000 C   0  0  0  0  0  0  0  0  0  0  0  0
   -3.0000  -10.3923    0.0000 N   0  0  0  0  0  0  0  0  0  0  0  0
   -3.7500   -9.0933    0.0000 C   0  0  0  0  0  0  0  0  0  0  0  0
   -3.0000   -7.7942    0.0000 C   0  0  0  0  0  0  0  0  0  0  0  0
   -1.5000   -7.7942    0.0000 N   0  0  0  0  0  0  0  0  0  0  0  0
   -0.7500   -6.4952    0.0000 C   0  0  0  0  0  0  0  0  0  0  0  0
    0.7500   -6.4952    0.0000 C   0  0  0  0  0  0  0  0  0  0  0  0
    1.5000   -5.1962    0.0000 C   0  0  0  0  0  0  0  0  0  0  0  0
    0.7500   -3.8971    0.0000 C   0  0  0  0  0  0  0  0  0  0  0  0
    1.5000   -2.5981    0.0000 N   0  0  0  0  0  0  0  0  0  0  0  0
    0.7500   -1.2990    0.0000 C   0  0  0  0  0  0  0  0  0  0  0  0
    1.5000    0.0000    0.0000 N   0  0  0  0  0  0  0  0  0  0  0  0
    0.7500    1.2990    0.0000 C   0  0  0  0  0  0  0  0  0  0  0  0
   -0.7500    1.2990    0.0000 C   0  0  0  0  0  0  0  0  0  0  0  0
   -1.5000    2.5981    0.0000 C   0  0  0  0  0  0  0  0  0  0  0  0
   -3.0000    2.5981    0.0000 C   0  0  0  0  0  0  0  0  0  0  0  0
   -3.7500    3.8971    0.0000 O   0  0  0  0  0  0  0  0  0  0  0  0
   -3.0000    5.1962    0.0000 C   0  0  0  0  0  0  0  0  0  0  0  0
   -1.5000    5.1962    0.0000 C   0  0  0  0  0  0  0  0  0  0  0  0
   -0.7500    6.4952    0.0000 C   0  0  0  0  0  0  0  0  0  0  0  0
   -1.5000    7.7942    0.0000 C   0  0  0  0  0  0  0  0  0  0  0  0
   -0.7500    9.0933    0.0000 F   0  0  0  0  0  0  0  0  0  0  0  0
   -3.0000    7.7942    0.0000 C   0  0  0  0  0  0  0  0  0  0  0  0
   -3.7500    6.4952    0.0000 C   0  0  0  0  0  0  0  0  0  0  0  0
   -5.2500    6.4952    0.0000 F   0  0  0  0  0  0  0  0  0  0  0  0
   -3.7500    1.2990    0.0000 C   0  0  0  0  0  0  0  0  0  0  0  0
   -5.2500    1.2990    0.0000 O   0  0  0  0  0  0  0  0  0  0  0  0
   -3.0000    0.0000    0.0000 N   0  0  0  0  0  0  0  0  0  0  0  0
   -3.7500   -1.2990    0.0000 C   0  0  0  0  0  0  0  0  0  0  0  0
   -1.5000    0.0000    0.0000 C   0  0  0  0  0  0  0  0  0  0  0  0
   -0.7500   -1.2990    0.0000 N   0  0  0  0  0  0  0  0  0  0  0  0
   -0.7500   -3.8971    0.0000 C   0  0  0  0  0  0  0  0  0  0  0  0
   -1.5000   -5.1962    0.0000 C   0  0  0  0  0  0  0  0  0  0  0  0
   -0.7500   -9.0933    0.0000 C   0  0  0  0  0  0  0  0  0  0  0  0
   -1.5000  -10.3923    0.0000 C   0  0  0  0  0  0  0  0  0  0  0  0
  1  2  1  0
  2  3  1  0
  3  4  1  0
  4  5  1  0
  5  6  1  0
  6  7  2  0
  7  8  1  0
  8  9  2  0
  9 10  1  0
 10 11  1  0
 11 12  2  0
 12 13  1  0
 13 14  2  0
 14 15  1  0
 15 16  2  0
 16 17  1  0
 17 18  1  0
 18 19  2  0
 19 20  1  0
 20 21  2  0
 21 22  1  0
 21 23  1  0
 23 24  2  0
 24 25  1  0
 16 26  1  0
 26 27  2  0
 26 28  1  0
 28 29  1  0
 28 30  1  0
 30 31  2  0
  9 32  1  0
 32 33  2  0
  5 34  1  0
 34 35  1  0
 35  2  1  0
 33  6  1  0
 31 11  1  0
 30 14  1  0
 24 18  1  0
M  END
>  <Compound_ID>  (556) 
CHEMBL3745734

>  <Molecule Name>  (556) 
nan

>  <Molecular Weight>  (556) 
478.5

>  <AlogP>  (556) 
3.89

>  <Smiles>  (556) 
CN1CCN(c2ccc(Nc3ncc4cc(Oc5ccc(F)cc5F)c(=O)n(C)c4n3)cc2)CC1

>  <Standard Type>  (556) 
Inhibition

>  <Standard Relation>  (556) 
'='

>  <Standard Units>  (556) 
%

>  <Standard Value>  (556) 
13.0

>  <Assay ChEMBL ID>  (556) 
CHEMBL3750776

>  <Assay Description>  (556) 
Inhibition of SYK (unknown origin) at 10 uM

>  <BAO Format ID>  (556) 
BAO_0000357

>  <BAO Label>  (556) 
single protein format

>  <Assay Organism>  (556) 
Homo sapiens

>  <Target ChEMBL ID>  (556) 
CHEMBL2599

>  <Target Name>  (556) 
Tyrosine-protein kinase SYK

>  <Target Organism>  (556) 
Homo sapiens

>  <Target Type>  (556) 
SINGLE PROTEIN

>  <Document ChEMBL ID>  (556) 
CHEMBL3745672

>  <Source Description>  (556) 
Scientific Literature

>  <Document Journal>  (556) 
Bioorg Med Chem Lett

>  <Document Year>  (556) 
2016.0

>  <Active>  (556) 
0.0

>  <bits>  (556) 
<rdkit.DataStructs.cDataStructs.ExplicitBitVect object at 0x00000193F33E8740>

>  <Group>  (556) 
G2

$$$$

     RDKit          2D

 24 26  0  0  0  0  0  0  0  0999 V2000
    3.7500   -1.2990    0.0000 C   0  0  0  0  0  0  0  0  0  0  0  0
    3.0000    0.0000    0.0000 O   0  0  0  0  0  0  0  0  0  0  0  0
    1.5000    0.0000    0.0000 C   0  0  0  0  0  0  0  0  0  0  0  0
    0.7500   -1.2990    0.0000 C   0  0  0  0  0  0  0  0  0  0  0  0
   -0.7500   -1.2990    0.0000 C   0  0  0  0  0  0  0  0  0  0  0  0
   -1.5000   -2.5981    0.0000 N   0  0  0  0  0  0  0  0  0  0  0  0
   -3.0000   -2.5981    0.0000 C   0  0  0  0  0  0  0  0  0  0  0  0
   -3.8817   -3.8116    0.0000 N   0  0  0  0  0  0  0  0  0  0  0  0
   -5.3083   -3.3481    0.0000 C   0  0  0  0  0  0  0  0  0  0  0  0
   -5.3083   -1.8481    0.0000 C   0  0  0  0  0  0  0  0  0  0  0  0
   -6.5218   -0.9664    0.0000 C   0  0  0  0  0  0  0  0  0  0  0  0
   -6.3650    0.5254    0.0000 C   0  0  0  0  0  0  0  0  0  0  0  0
   -7.5785    1.4071    0.0000 C   0  0  0  0  0  0  0  0  0  0  0  0
   -8.9488    0.7970    0.0000 C   0  0  0  0  0  0  0  0  0  0  0  0
   -9.1056   -0.6948    0.0000 C   0  0  0  0  0  0  0  0  0  0  0  0
   -7.8921   -1.5765    0.0000 C   0  0  0  0  0  0  0  0  0  0  0  0
   -3.8817   -1.3846    0.0000 O   0  0  0  0  0  0  0  0  0  0  0  0
   -1.5000    0.0000    0.0000 C   0  0  0  0  0  0  0  0  0  0  0  0
   -0.7500    1.2990    0.0000 C   0  0  0  0  0  0  0  0  0  0  0  0
   -1.5000    2.5981    0.0000 O   0  0  0  0  0  0  0  0  0  0  0  0
   -0.7500    3.8971    0.0000 C   0  0  0  0  0  0  0  0  0  0  0  0
    0.7500    1.2990    0.0000 C   0  0  0  0  0  0  0  0  0  0  0  0
    1.5000    2.5981    0.0000 O   0  0  0  0  0  0  0  0  0  0  0  0
    3.0000    2.5981    0.0000 C   0  0  0  0  0  0  0  0  0  0  0  0
  1  2  1  0
  2  3  1  0
  3  4  2  0
  4  5  1  0
  5  6  1  0
  6  7  1  0
  7  8  2  0
  8  9  1  0
  9 10  2  0
 10 11  1  0
 11 12  2  0
 12 13  1  0
 13 14  2  0
 14 15  1  0
 15 16  2  0
 10 17  1  0
  5 18  2  0
 18 19  1  0
 19 20  1  0
 20 21  1  0
 19 22  2  0
 22 23  1  0
 23 24  1  0
 22  3  1  0
 17  7  1  0
 16 11  1  0
M  END
>  <Compound_ID>  (557) 
CHEMBL443563

>  <Molecule Name>  (557) 
GW627512B

>  <Molecular Weight>  (557) 
326.35

>  <AlogP>  (557) 
4.11

>  <Smiles>  (557) 
COc1cc(Nc2ncc(-c3ccccc3)o2)cc(OC)c1OC

>  <Standard Type>  (557) 
Inhibition

>  <Standard Relation>  (557) 
'='

>  <Standard Units>  (557) 
%

>  <Standard Value>  (557) 
-0.67

>  <Assay ChEMBL ID>  (557) 
CHEMBL1962174

>  <Assay Description>  (557) 
GSK_PKIS: SYK mean inhibition at 0.1 uM [Nanosyn]

>  <BAO Format ID>  (557) 
BAO_0000357

>  <BAO Label>  (557) 
single protein format

>  <Assay Organism>  (557) 
None

>  <Target ChEMBL ID>  (557) 
CHEMBL2599

>  <Target Name>  (557) 
Tyrosine-protein kinase SYK

>  <Target Organism>  (557) 
Homo sapiens

>  <Target Type>  (557) 
SINGLE PROTEIN

>  <Document ChEMBL ID>  (557) 
CHEMBL1961873

>  <Source Description>  (557) 
GSK Published Kinase Inhibitor Set

>  <Document Journal>  (557) 
nan

>  <Document Year>  (557) 
nan

>  <Active>  (557) 
0.0

>  <bits>  (557) 
<rdkit.DataStructs.cDataStructs.ExplicitBitVect object at 0x00000193F33E8430>

>  <Group>  (557) 
G2

$$$$

     RDKit          2D

 39 43  0  0  0  0  0  0  0  0999 V2000
    4.4776    3.4730    0.0000 C   0  0  0  0  0  0  0  0  0  0  0  0
    3.0510    3.0095    0.0000 C   0  0  0  0  0  0  0  0  0  0  0  0
    1.9363    4.0132    0.0000 C   0  0  0  0  0  0  0  0  0  0  0  0
    2.2923    5.0471    0.0000 O   0  0  0  0  0  0  0  0  0  0  0  0
    0.5097    3.5496    0.0000 N   0  0  0  0  0  0  0  0  0  0  0  0
   -0.6050    4.5533    0.0000 C   0  0  0  0  0  0  0  0  0  0  0  0
   -2.0316    4.0898    0.0000 C   0  0  0  0  0  0  0  0  0  0  0  0
   -3.1463    5.0935    0.0000 C   0  0  0  0  0  0  0  0  0  0  0  0
   -4.5729    4.6300    0.0000 N   0  0  0  0  0  0  0  0  0  0  0  0
   -4.8848    3.1627    0.0000 C   0  0  0  0  0  0  0  0  0  0  0  0
   -6.3114    2.6992    0.0000 N   0  0  0  0  0  0  0  0  0  0  0  0
   -6.6232    1.2320    0.0000 C   0  0  0  0  0  0  0  0  0  0  0  0
   -5.5085    0.2283    0.0000 C   0  0  0  0  0  0  0  0  0  0  0  0
   -4.0819    0.6918    0.0000 C   0  0  0  0  0  0  0  0  0  0  0  0
   -2.9672   -0.3119    0.0000 C   0  0  0  0  0  0  0  0  0  0  0  0
   -3.1240   -1.8037    0.0000 C   0  0  0  0  0  0  0  0  0  0  0  0
   -1.7537   -2.4138    0.0000 N   0  0  0  0  0  0  0  0  0  0  0  0
   -0.7500   -1.2990    0.0000 C   0  0  0  0  0  0  0  0  0  0  0  0
    0.7500   -1.2990    0.0000 C   0  0  0  0  0  0  0  0  0  0  0  0
    1.5000    0.0000    0.0000 C   0  0  0  0  0  0  0  0  0  0  0  0
    0.7500    1.2990    0.0000 C   0  0  0  0  0  0  0  0  0  0  0  0
   -0.7500    1.2990    0.0000 C   0  0  0  0  0  0  0  0  0  0  0  0
   -1.5000    0.0000    0.0000 C   0  0  0  0  0  0  0  0  0  0  0  0
    1.2299   -2.7273    0.0000 C   0  0  0  0  0  0  0  0  0  0  0  0
    0.3482   -3.9409    0.0000 C   0  0  0  0  0  0  0  0  0  0  0  0
   -1.1436   -3.7841    0.0000 C   0  0  0  0  0  0  0  0  0  0  0  0
   -3.7701    2.1590    0.0000 N   0  0  0  0  0  0  0  0  0  0  0  0
   -2.8345    6.5607    0.0000 C   0  0  0  0  0  0  0  0  0  0  0  0
   -3.9492    7.5644    0.0000 O   0  0  0  0  0  0  0  0  0  0  0  0
   -3.6373    9.0316    0.0000 C   0  0  0  0  0  0  0  0  0  0  0  0
   -1.4079    7.0242    0.0000 C   0  0  0  0  0  0  0  0  0  0  0  0
   -0.2932    6.0205    0.0000 C   0  0  0  0  0  0  0  0  0  0  0  0
    1.1334    6.4841    0.0000 N   0  0  0  0  0  0  0  0  0  0  0  0
    2.0292    5.8569    0.0000 C   0  0  0  0  0  0  0  0  0  0  0  0
    1.4453    7.9513    0.0000 C   0  0  0  0  0  0  0  0  0  0  0  0
    2.8719    8.4148    0.0000 C   0  0  0  0  0  0  0  0  0  0  0  0
    3.1837    9.8820    0.0000 N   0  0  0  0  0  0  0  0  0  0  0  0
    4.6103   10.3456    0.0000 C   0  0  0  0  0  0  0  0  0  0  0  0
    2.0690   10.8857    0.0000 C   0  0  0  0  0  0  0  0  0  0  0  0
  1  2  2  0
  2  3  1  0
  3  4  2  0
  3  5  1  0
  5  6  1  0
  6  7  2  0
  7  8  1  0
  8  9  1  0
  9 10  1  0
 10 11  2  0
 11 12  1  0
 12 13  2  0
 13 14  1  0
 14 15  1  0
 15 16  2  0
 16 17  1  0
 17 18  1  0
 18 19  2  0
 19 20  1  0
 20 21  2  0
 21 22  1  0
 22 23  2  0
 19 24  1  0
 24 25  1  0
 25 26  1  0
 14 27  2  0
  8 28  2  0
 28 29  1  0
 29 30  1  0
 28 31  1  0
 31 32  2  0
 32 33  1  0
 33 34  1  0
 33 35  1  0
 35 36  1  0
 36 37  1  0
 37 38  1  0
 37 39  1  0
 32  6  1  0
 27 10  1  0
 23 15  1  0
 26 17  1  0
 23 18  1  0
M  END
>  <Compound_ID>  (558) 
CHEMBL4104658

>  <Molecule Name>  (558) 
nan

>  <Molecular Weight>  (558) 
525.66

>  <AlogP>  (558) 
4.92

>  <Smiles>  (558) 
C=CC(=O)Nc1cc(Nc2nccc(-c3cn4c5c(cccc35)CCC4)n2)c(OC)cc1N(C)CCN(C)C

>  <Standard Type>  (558) 
Inhibition

>  <Standard Relation>  (558) 
'='

>  <Standard Units>  (558) 
%

>  <Standard Value>  (558) 
4.0

>  <Assay ChEMBL ID>  (558) 
CHEMBL4053910

>  <Assay Description>  (558) 
Inhibition of SYK (unknown origin) at 1 uM relative to control

>  <BAO Format ID>  (558) 
BAO_0000357

>  <BAO Label>  (558) 
single protein format

>  <Assay Organism>  (558) 
Homo sapiens

>  <Target ChEMBL ID>  (558) 
CHEMBL2599

>  <Target Name>  (558) 
Tyrosine-protein kinase SYK

>  <Target Organism>  (558) 
Homo sapiens

>  <Target Type>  (558) 
SINGLE PROTEIN

>  <Document ChEMBL ID>  (558) 
CHEMBL4052618

>  <Source Description>  (558) 
Scientific Literature

>  <Document Journal>  (558) 
Eur J Med Chem

>  <Document Year>  (558) 
2017.0

>  <Active>  (558) 
0.0

>  <bits>  (558) 
<rdkit.DataStructs.cDataStructs.ExplicitBitVect object at 0x00000193F33EBA00>

>  <Group>  (558) 
G2

$$$$

     RDKit          2D

 26 29  0  0  0  0  0  0  0  0999 V2000
    6.7500   -6.4952    0.0000 C   0  0  0  0  0  0  0  0  0  0  0  0
    6.0000   -5.1962    0.0000 S   0  0  0  0  0  0  0  0  0  0  0  0
    4.7010   -5.9462    0.0000 O   0  0  0  0  0  0  0  0  0  0  0  0
    7.2990   -4.4462    0.0000 O   0  0  0  0  0  0  0  0  0  0  0  0
    5.2500   -3.8971    0.0000 N   0  0  0  0  0  0  0  0  0  0  0  0
    3.7500   -3.8971    0.0000 C   0  0  0  0  0  0  0  0  0  0  0  0
    3.0000   -5.1962    0.0000 C   0  0  0  0  0  0  0  0  0  0  0  0
    1.5000   -5.1962    0.0000 C   0  0  0  0  0  0  0  0  0  0  0  0
    0.7500   -3.8971    0.0000 C   0  0  0  0  0  0  0  0  0  0  0  0
    1.5000   -2.5981    0.0000 C   0  0  0  0  0  0  0  0  0  0  0  0
    0.7500   -1.2990    0.0000 C   0  0  0  0  0  0  0  0  0  0  0  0
    1.5000    0.0000    0.0000 C   0  0  0  0  0  0  0  0  0  0  0  0
    0.7500    1.2990    0.0000 C   0  0  0  0  0  0  0  0  0  0  0  0
   -0.7500    1.2990    0.0000 C   0  0  0  0  0  0  0  0  0  0  0  0
   -1.7537    2.4138    0.0000 C   0  0  0  0  0  0  0  0  0  0  0  0
   -1.4418    3.8810    0.0000 N   0  0  0  0  0  0  0  0  0  0  0  0
   -2.5565    4.8847    0.0000 C   0  0  0  0  0  0  0  0  0  0  0  0
   -3.9831    4.4211    0.0000 O   0  0  0  0  0  0  0  0  0  0  0  0
   -2.2447    6.3519    0.0000 C   0  0  0  0  0  0  0  0  0  0  0  0
   -2.7082    7.7785    0.0000 C   0  0  0  0  0  0  0  0  0  0  0  0
   -1.2410    7.4666    0.0000 C   0  0  0  0  0  0  0  0  0  0  0  0
   -3.1240    1.8037    0.0000 N   0  0  0  0  0  0  0  0  0  0  0  0
   -2.9672    0.3119    0.0000 N   0  0  0  0  0  0  0  0  0  0  0  0
   -1.5000    0.0000    0.0000 C   0  0  0  0  0  0  0  0  0  0  0  0
   -0.7500   -1.2990    0.0000 C   0  0  0  0  0  0  0  0  0  0  0  0
    3.0000   -2.5981    0.0000 C   0  0  0  0  0  0  0  0  0  0  0  0
  1  2  1  0
  2  3  2  0
  2  4  2  0
  2  5  1  0
  5  6  1  0
  6  7  2  0
  7  8  1  0
  8  9  2  0
  9 10  1  0
 10 11  1  0
 11 12  2  0
 12 13  1  0
 13 14  2  0
 14 15  1  0
 15 16  1  0
 16 17  1  0
 17 18  2  0
 17 19  1  0
 19 20  1  0
 20 21  1  0
 15 22  2  0
 22 23  1  0
 23 24  1  0
 24 25  2  0
 10 26  2  0
 26  6  1  0
 25 11  1  0
 24 14  1  0
 21 19  1  0
M  END
>  <Compound_ID>  (559) 
CHEMBL103080

>  <Molecule Name>  (559) 
nan

>  <Molecular Weight>  (559) 
370.43

>  <AlogP>  (559) 
2.95

>  <Smiles>  (559) 
CS(=O)(=O)Nc1cccc(-c2ccc3c(NC(=O)C4CC4)n[nH]c3c2)c1

>  <Standard Type>  (559) 
Inhibition

>  <Standard Relation>  (559) 
'='

>  <Standard Units>  (559) 
%

>  <Standard Value>  (559) 
-1.34

>  <Assay ChEMBL ID>  (559) 
CHEMBL1962174

>  <Assay Description>  (559) 
GSK_PKIS: SYK mean inhibition at 0.1 uM [Nanosyn]

>  <BAO Format ID>  (559) 
BAO_0000357

>  <BAO Label>  (559) 
single protein format

>  <Assay Organism>  (559) 
None

>  <Target ChEMBL ID>  (559) 
CHEMBL2599

>  <Target Name>  (559) 
Tyrosine-protein kinase SYK

>  <Target Organism>  (559) 
Homo sapiens

>  <Target Type>  (559) 
SINGLE PROTEIN

>  <Document ChEMBL ID>  (559) 
CHEMBL1961873

>  <Source Description>  (559) 
GSK Published Kinase Inhibitor Set

>  <Document Journal>  (559) 
nan

>  <Document Year>  (559) 
nan

>  <Active>  (559) 
0.0

>  <bits>  (559) 
<rdkit.DataStructs.cDataStructs.ExplicitBitVect object at 0x00000193F33E9E00>

>  <Group>  (559) 
G2

$$$$

     RDKit          2D

 25 28  0  0  0  0  0  0  0  0999 V2000
   -3.7548   -2.1855    0.0000 C   0  0  0  0  0  0  0  0  0  0  0  0
   -2.6401   -3.1891    0.0000 C   0  0  0  0  0  0  0  0  0  0  0  0
   -1.2135   -2.7256    0.0000 N   0  0  0  0  0  0  0  0  0  0  0  0
   -0.0000   -3.6073    0.0000 C   0  0  0  0  0  0  0  0  0  0  0  0
   -0.0000   -5.1073    0.0000 C   0  0  0  0  0  0  0  0  0  0  0  0
    1.2135   -5.9890    0.0000 N   0  0  0  0  0  0  0  0  0  0  0  0
    0.7500   -7.4156    0.0000 O   0  0  0  0  0  0  0  0  0  0  0  0
   -0.7500   -7.4156    0.0000 N   0  0  0  0  0  0  0  0  0  0  0  0
   -1.2135   -5.9890    0.0000 C   0  0  0  0  0  0  0  0  0  0  0  0
   -2.6401   -5.5255    0.0000 N   0  0  0  0  0  0  0  0  0  0  0  0
    1.2135   -2.7256    0.0000 N   0  0  0  0  0  0  0  0  0  0  0  0
    0.7500   -1.2990    0.0000 C   0  0  0  0  0  0  0  0  0  0  0  0
    1.5000    0.0000    0.0000 C   0  0  0  0  0  0  0  0  0  0  0  0
    0.7500    1.2990    0.0000 N   0  0  0  0  0  0  0  0  0  0  0  0
   -0.7500    1.2990    0.0000 C   0  0  0  0  0  0  0  0  0  0  0  0
   -1.5000    0.0000    0.0000 C   0  0  0  0  0  0  0  0  0  0  0  0
   -3.0000    0.0000    0.0000 C   0  0  0  0  0  0  0  0  0  0  0  0
   -3.7500   -1.2990    0.0000 O   0  0  0  0  0  0  0  0  0  0  0  0
   -3.7500    1.2990    0.0000 N   0  0  0  0  0  0  0  0  0  0  0  0
   -5.2418    1.4558    0.0000 C   0  0  0  0  0  0  0  0  0  0  0  0
   -5.5537    2.9231    0.0000 C   0  0  0  0  0  0  0  0  0  0  0  0
   -4.2546    3.6731    0.0000 C   0  0  0  0  0  0  0  0  0  0  0  0
   -4.0978    5.1648    0.0000 N   0  0  0  0  0  0  0  0  0  0  0  0
   -3.1399    2.6694    0.0000 C   0  0  0  0  0  0  0  0  0  0  0  0
   -0.7500   -1.2990    0.0000 C   0  0  0  0  0  0  0  0  0  0  0  0
  1  2  1  0
  2  3  1  0
  3  4  1  0
  4  5  1  0
  5  6  2  0
  6  7  1  0
  7  8  1  0
  8  9  2  0
  9 10  1  0
  4 11  2  0
 11 12  1  0
 12 13  2  0
 13 14  1  0
 14 15  2  0
 15 16  1  0
 16 17  1  0
 17 18  2  0
 17 19  1  0
 19 20  1  0
 20 21  1  0
 21 22  1  0
 22 23  1  6
 22 24  1  0
 16 25  2  0
 25  3  1  0
  9  5  1  0
 25 12  1  0
 24 19  1  0
M  END
>  <Compound_ID>  (560) 
CHEMBL1909384

>  <Molecule Name>  (560) 
nan

>  <Molecular Weight>  (560) 
378.82

>  <AlogP>  (560) 
0.26

>  <Smiles>  (560) 
CCn1c(-c2nonc2N)nc2cncc(C(=O)N3CC[C@H](N)C3)c21

>  <Standard Type>  (560) 
Inhibition

>  <Standard Relation>  (560) 
'='

>  <Standard Units>  (560) 
%

>  <Standard Value>  (560) 
1.83

>  <Assay ChEMBL ID>  (560) 
CHEMBL1962175

>  <Assay Description>  (560) 
GSK_PKIS: SYK mean inhibition at 1 uM [Nanosyn]

>  <BAO Format ID>  (560) 
BAO_0000357

>  <BAO Label>  (560) 
single protein format

>  <Assay Organism>  (560) 
None

>  <Target ChEMBL ID>  (560) 
CHEMBL2599

>  <Target Name>  (560) 
Tyrosine-protein kinase SYK

>  <Target Organism>  (560) 
Homo sapiens

>  <Target Type>  (560) 
SINGLE PROTEIN

>  <Document ChEMBL ID>  (560) 
CHEMBL1961873

>  <Source Description>  (560) 
GSK Published Kinase Inhibitor Set

>  <Document Journal>  (560) 
nan

>  <Document Year>  (560) 
nan

>  <Active>  (560) 
0.0

>  <bits>  (560) 
<rdkit.DataStructs.cDataStructs.ExplicitBitVect object at 0x00000193F33EAA40>

>  <Group>  (560) 
G2

$$$$

     RDKit          2D

 32 35  0  0  0  0  0  0  0  0999 V2000
   -3.0000   -2.5981    0.0000 C   0  0  0  0  0  0  0  0  0  0  0  0
   -1.5000   -2.5981    0.0000 N   0  0  0  0  0  0  0  0  0  0  0  0
   -0.7500   -3.8971    0.0000 C   0  0  0  0  0  0  0  0  0  0  0  0
   -1.5000   -5.1962    0.0000 O   0  0  0  0  0  0  0  0  0  0  0  0
    0.7500   -3.8971    0.0000 C   0  0  0  0  0  0  0  0  0  0  0  0
    1.5000   -5.1962    0.0000 O   0  0  0  0  0  0  0  0  0  0  0  0
    0.7500   -6.4952    0.0000 C   0  0  0  0  0  0  0  0  0  0  0  0
   -0.7500   -6.4952    0.0000 C   0  0  0  0  0  0  0  0  0  0  0  0
   -1.5000   -7.7942    0.0000 C   0  0  0  0  0  0  0  0  0  0  0  0
   -0.7500   -9.0933    0.0000 C   0  0  0  0  0  0  0  0  0  0  0  0
   -1.5000  -10.3923    0.0000 F   0  0  0  0  0  0  0  0  0  0  0  0
    0.7500   -9.0933    0.0000 C   0  0  0  0  0  0  0  0  0  0  0  0
    1.5000   -7.7942    0.0000 C   0  0  0  0  0  0  0  0  0  0  0  0
    3.0000   -7.7942    0.0000 F   0  0  0  0  0  0  0  0  0  0  0  0
    1.5000   -2.5981    0.0000 C   0  0  0  0  0  0  0  0  0  0  0  0
    0.7500   -1.2990    0.0000 C   0  0  0  0  0  0  0  0  0  0  0  0
    1.5000    0.0000    0.0000 C   0  0  0  0  0  0  0  0  0  0  0  0
    0.7500    1.2990    0.0000 N   0  0  0  0  0  0  0  0  0  0  0  0
   -0.7500    1.2990    0.0000 C   0  0  0  0  0  0  0  0  0  0  0  0
   -1.5000    2.5981    0.0000 N   0  0  0  0  0  0  0  0  0  0  0  0
   -0.7500    3.8971    0.0000 C   0  0  0  0  0  0  0  0  0  0  0  0
    0.7500    3.8971    0.0000 C   0  0  0  0  0  0  0  0  0  0  0  0
    1.5000    5.1962    0.0000 C   0  0  0  0  0  0  0  0  0  0  0  0
    0.7500    6.4952    0.0000 N   0  0  0  0  0  0  0  0  0  0  0  0
    1.5000    7.7942    0.0000 S   0  0  0  0  0  0  0  0  0  0  0  0
    2.2500    9.0933    0.0000 N   0  0  0  0  0  0  0  0  0  0  0  0
    0.2010    8.5442    0.0000 O   0  0  0  0  0  0  0  0  0  0  0  0
    2.7990    7.0442    0.0000 O   0  0  0  0  0  0  0  0  0  0  0  0
   -0.7500    6.4952    0.0000 C   0  0  0  0  0  0  0  0  0  0  0  0
   -1.5000    5.1962    0.0000 C   0  0  0  0  0  0  0  0  0  0  0  0
   -1.5000    0.0000    0.0000 N   0  0  0  0  0  0  0  0  0  0  0  0
   -0.7500   -1.2990    0.0000 C   0  0  0  0  0  0  0  0  0  0  0  0
  1  2  1  0
  2  3  1  0
  3  4  2  0
  3  5  1  0
  5  6  1  0
  6  7  1  0
  7  8  2  0
  8  9  1  0
  9 10  2  0
 10 11  1  0
 10 12  1  0
 12 13  2  0
 13 14  1  0
  5 15  2  0
 15 16  1  0
 16 17  2  0
 17 18  1  0
 18 19  2  0
 19 20  1  0
 20 21  1  0
 21 22  1  0
 22 23  1  0
 23 24  1  0
 24 25  1  0
 25 26  1  0
 25 27  2  0
 25 28  2  0
 24 29  1  0
 29 30  1  0
 19 31  1  0
 31 32  2  0
 32  2  1  0
 13  7  1  0
 32 16  1  0
 30 21  1  0
M  END
>  <Compound_ID>  (561) 
CHEMBL3747489

>  <Molecule Name>  (561) 
nan

>  <Molecular Weight>  (561) 
466.47

>  <AlogP>  (561) 
1.48

>  <Smiles>  (561) 
Cn1c(=O)c(Oc2ccc(F)cc2F)cc2cnc(NC3CCN(S(N)(=O)=O)CC3)nc21

>  <Standard Type>  (561) 
Inhibition

>  <Standard Relation>  (561) 
'='

>  <Standard Units>  (561) 
%

>  <Standard Value>  (561) 
14.0

>  <Assay ChEMBL ID>  (561) 
CHEMBL3750811

>  <Assay Description>  (561) 
Inhibition of SYK (unknown origin) at 1 uM

>  <BAO Format ID>  (561) 
BAO_0000357

>  <BAO Label>  (561) 
single protein format

>  <Assay Organism>  (561) 
Homo sapiens

>  <Target ChEMBL ID>  (561) 
CHEMBL2599

>  <Target Name>  (561) 
Tyrosine-protein kinase SYK

>  <Target Organism>  (561) 
Homo sapiens

>  <Target Type>  (561) 
SINGLE PROTEIN

>  <Document ChEMBL ID>  (561) 
CHEMBL3745672

>  <Source Description>  (561) 
Scientific Literature

>  <Document Journal>  (561) 
Bioorg Med Chem Lett

>  <Document Year>  (561) 
2016.0

>  <Active>  (561) 
0.0

>  <bits>  (561) 
<rdkit.DataStructs.cDataStructs.ExplicitBitVect object at 0x00000193F33EAB90>

>  <Group>  (561) 
G2

$$$$

     RDKit          2D

 37 42  0  0  0  0  0  0  0  0999 V2000
   -0.2010   -8.5442    0.0000 C   0  0  0  0  0  0  0  0  0  0  0  0
   -1.5000   -7.7942    0.0000 C   0  0  0  0  0  0  0  0  0  0  0  0
   -2.7990   -7.0442    0.0000 C   0  0  0  0  0  0  0  0  0  0  0  0
   -2.2500   -9.0933    0.0000 O   0  0  0  0  0  0  0  0  0  0  0  0
   -0.7500   -6.4952    0.0000 C   0  0  0  0  0  0  0  0  0  0  0  0
   -1.5000   -5.1962    0.0000 C   0  0  0  0  0  0  0  0  0  0  0  0
   -0.7500   -3.8971    0.0000 C   0  0  0  0  0  0  0  0  0  0  0  0
    0.7500   -3.8971    0.0000 N   0  0  0  0  0  0  0  0  0  0  0  0
    1.5000   -2.5981    0.0000 C   0  0  0  0  0  0  0  0  0  0  0  0
    0.7500   -1.2990    0.0000 C   0  0  0  0  0  0  0  0  0  0  0  0
    1.5000    0.0000    0.0000 C   0  0  0  0  0  0  0  0  0  0  0  0
    0.7500    1.2990    0.0000 C   0  0  0  0  0  0  0  0  0  0  0  0
   -0.7500    1.2990    0.0000 C   0  0  0  0  0  0  0  0  0  0  0  0
   -1.5000    2.5981    0.0000 N   0  0  0  0  0  0  0  0  0  0  0  0
   -3.0000    2.5981    0.0000 C   0  0  0  0  0  0  0  0  0  0  0  0
   -3.7500    3.8971    0.0000 C   0  0  0  0  0  0  0  0  0  0  0  0
   -5.2500    3.8971    0.0000 C   0  0  0  0  0  0  0  0  0  0  0  0
   -6.0000    2.5981    0.0000 F   0  0  0  0  0  0  0  0  0  0  0  0
   -6.0000    5.1962    0.0000 C   0  0  0  0  0  0  0  0  0  0  0  0
   -5.2500    6.4952    0.0000 C   0  0  0  0  0  0  0  0  0  0  0  0
   -3.7500    6.4952    0.0000 C   0  0  0  0  0  0  0  0  0  0  0  0
   -2.7463    7.6099    0.0000 N   0  0  0  0  0  0  0  0  0  0  0  0
   -1.3760    6.9998    0.0000 C   0  0  0  0  0  0  0  0  0  0  0  0
   -1.5328    5.5080    0.0000 C   0  0  0  0  0  0  0  0  0  0  0  0
   -3.0000    5.1962    0.0000 C   0  0  0  0  0  0  0  0  0  0  0  0
   -3.7500    1.2990    0.0000 N   0  0  0  0  0  0  0  0  0  0  0  0
   -3.0000    0.0000    0.0000 C   0  0  0  0  0  0  0  0  0  0  0  0
   -3.7500   -1.2990    0.0000 N   0  0  0  0  0  0  0  0  0  0  0  0
   -5.2500   -1.2990    0.0000 C   0  0  0  0  0  0  0  0  0  0  0  0
   -6.0000   -2.5981    0.0000 C   0  0  0  0  0  0  0  0  0  0  0  0
   -5.2500   -3.8971    0.0000 O   0  0  0  0  0  0  0  0  0  0  0  0
   -3.7500   -3.8971    0.0000 C   0  0  0  0  0  0  0  0  0  0  0  0
   -3.0000   -2.5981    0.0000 C   0  0  0  0  0  0  0  0  0  0  0  0
   -1.5000    0.0000    0.0000 C   0  0  0  0  0  0  0  0  0  0  0  0
   -0.7500   -1.2990    0.0000 N   0  0  0  0  0  0  0  0  0  0  0  0
    1.5000   -5.1962    0.0000 C   0  0  0  0  0  0  0  0  0  0  0  0
    0.7500   -6.4952    0.0000 C   0  0  0  0  0  0  0  0  0  0  0  0
  1  2  1  0
  2  3  1  0
  2  4  1  0
  2  5  1  0
  5  6  1  0
  6  7  1  0
  7  8  1  0
  8  9  1  0
  9 10  1  0
 10 11  2  0
 11 12  1  0
 12 13  2  0
 13 14  1  0
 14 15  2  0
 15 16  1  0
 16 17  2  0
 17 18  1  0
 17 19  1  0
 19 20  2  0
 20 21  1  0
 21 22  1  0
 22 23  1  0
 23 24  2  0
 24 25  1  0
 15 26  1  0
 26 27  2  0
 27 28  1  0
 28 29  1  0
 29 30  1  0
 30 31  1  0
 31 32  1  0
 32 33  1  0
 27 34  1  0
 34 35  2  0
  8 36  1  0
 36 37  1  0
 37  5  1  0
 35 10  1  0
 34 13  1  0
 25 16  1  0
 33 28  1  0
 25 21  2  0
M  END
>  <Compound_ID>  (562) 
CHEMBL2152768

>  <Molecule Name>  (562) 
nan

>  <Molecular Weight>  (562) 
504.61

>  <AlogP>  (562) 
4.13

>  <Smiles>  (562) 
CC(C)(O)C1CCN(Cc2ccc3nc(-c4c(F)ccc5[nH]ccc45)nc(N4CCOCC4)c3n2)CC1

>  <Standard Type>  (562) 
Inhibition

>  <Standard Relation>  (562) 
'='

>  <Standard Units>  (562) 
%

>  <Standard Value>  (562) 
-2.9

>  <Assay ChEMBL ID>  (562) 
CHEMBL2157711

>  <Assay Description>  (562) 
Inhibition of Syk at 1 uM

>  <BAO Format ID>  (562) 
BAO_0000357

>  <BAO Label>  (562) 
single protein format

>  <Assay Organism>  (562) 
None

>  <Target ChEMBL ID>  (562) 
CHEMBL2599

>  <Target Name>  (562) 
Tyrosine-protein kinase SYK

>  <Target Organism>  (562) 
Homo sapiens

>  <Target Type>  (562) 
SINGLE PROTEIN

>  <Document ChEMBL ID>  (562) 
CHEMBL2151019

>  <Source Description>  (562) 
Scientific Literature

>  <Document Journal>  (562) 
Bioorg Med Chem Lett

>  <Document Year>  (562) 
2012.0

>  <Active>  (562) 
0.0

>  <bits>  (562) 
<rdkit.DataStructs.cDataStructs.ExplicitBitVect object at 0x00000193F33EAE30>

>  <Group>  (562) 
G2

$$$$

     RDKit          2D

 30 34  0  0  0  0  0  0  0  0999 V2000
   -2.6401   -3.1891    0.0000 C   0  0  0  0  0  0  0  0  0  0  0  0
   -1.2135   -2.7256    0.0000 C   0  0  0  0  0  0  0  0  0  0  0  0
   -0.0000   -3.6073    0.0000 N   0  0  0  0  0  0  0  0  0  0  0  0
    1.2135   -2.7256    0.0000 N   0  0  0  0  0  0  0  0  0  0  0  0
    0.7500   -1.2990    0.0000 C   0  0  0  0  0  0  0  0  0  0  0  0
    1.5000    0.0000    0.0000 C   0  0  0  0  0  0  0  0  0  0  0  0
    0.7500    1.2990    0.0000 C   0  0  0  0  0  0  0  0  0  0  0  0
   -0.7500    1.2990    0.0000 C   0  0  0  0  0  0  0  0  0  0  0  0
   -1.5000    2.5981    0.0000 C   0  0  0  0  0  0  0  0  0  0  0  0
   -0.7500    3.8971    0.0000 C   0  0  0  0  0  0  0  0  0  0  0  0
   -1.5000    5.1962    0.0000 N   0  0  0  0  0  0  0  0  0  0  0  0
   -3.0000    5.1962    0.0000 C   0  0  0  0  0  0  0  0  0  0  0  0
   -3.7500    3.8971    0.0000 C   0  0  0  0  0  0  0  0  0  0  0  0
   -5.2500    3.8971    0.0000 O   0  0  0  0  0  0  0  0  0  0  0  0
   -6.0000    5.1962    0.0000 C   0  0  0  0  0  0  0  0  0  0  0  0
   -7.5000    5.1962    0.0000 C   0  0  0  0  0  0  0  0  0  0  0  0
   -8.2500    3.8971    0.0000 N   0  0  0  0  0  0  0  0  0  0  0  0
   -8.2500    6.4952    0.0000 C   0  0  0  0  0  0  0  0  0  0  0  0
   -9.7500    6.4952    0.0000 C   0  0  0  0  0  0  0  0  0  0  0  0
  -10.6317    5.2817    0.0000 C   0  0  0  0  0  0  0  0  0  0  0  0
  -12.0583    5.7452    0.0000 N   0  0  0  0  0  0  0  0  0  0  0  0
  -12.0583    7.2452    0.0000 C   0  0  0  0  0  0  0  0  0  0  0  0
  -13.1730    8.2489    0.0000 C   0  0  0  0  0  0  0  0  0  0  0  0
  -12.8611    9.7161    0.0000 C   0  0  0  0  0  0  0  0  0  0  0  0
  -11.4345   10.1796    0.0000 C   0  0  0  0  0  0  0  0  0  0  0  0
  -10.3198    9.1759    0.0000 C   0  0  0  0  0  0  0  0  0  0  0  0
  -10.6317    7.7087    0.0000 C   0  0  0  0  0  0  0  0  0  0  0  0
   -3.0000    2.5981    0.0000 C   0  0  0  0  0  0  0  0  0  0  0  0
   -1.5000    0.0000    0.0000 C   0  0  0  0  0  0  0  0  0  0  0  0
   -0.7500   -1.2990    0.0000 C   0  0  0  0  0  0  0  0  0  0  0  0
  1  2  1  0
  2  3  2  0
  3  4  1  0
  4  5  1  0
  5  6  2  0
  6  7  1  0
  7  8  2  0
  8  9  1  0
  9 10  2  0
 10 11  1  0
 11 12  2  0
 12 13  1  0
 13 14  1  0
 14 15  1  0
 15 16  1  0
 16 17  1  1
 16 18  1  0
 18 19  1  0
 19 20  2  0
 20 21  1  0
 21 22  1  0
 22 23  2  0
 23 24  1  0
 24 25  2  0
 25 26  1  0
 26 27  2  0
 13 28  2  0
  8 29  1  0
 29 30  2  0
 30  2  1  0
 30  5  1  0
 28  9  1  0
 27 19  1  0
 27 22  1  0
M  END
>  <Compound_ID>  (563) 
CHEMBL379300

>  <Molecule Name>  (563) 
A-443654

>  <Molecular Weight>  (563) 
397.48

>  <AlogP>  (563) 
4.36

>  <Smiles>  (563) 
Cc1n[nH]c2ccc(-c3cncc(OC[C@@H](N)Cc4c[nH]c5ccccc45)c3)cc12

>  <Standard Type>  (563) 
Inhibition

>  <Standard Relation>  (563) 
'='

>  <Standard Units>  (563) 
%

>  <Standard Value>  (563) 
0.0

>  <Assay ChEMBL ID>  (563) 
CHEMBL1251704

>  <Assay Description>  (563) 
Inhibition of SYK at 1 uM in presence of 10 uM ATP by Select Screen kinase assay relative to untreated control

>  <BAO Format ID>  (563) 
BAO_0000357

>  <BAO Label>  (563) 
single protein format

>  <Assay Organism>  (563) 
None

>  <Target ChEMBL ID>  (563) 
CHEMBL2599

>  <Target Name>  (563) 
Tyrosine-protein kinase SYK

>  <Target Organism>  (563) 
Homo sapiens

>  <Target Type>  (563) 
SINGLE PROTEIN

>  <Document ChEMBL ID>  (563) 
CHEMBL1250448

>  <Source Description>  (563) 
Scientific Literature

>  <Document Journal>  (563) 
Nat Chem Biol

>  <Document Year>  (563) 
2009.0

>  <Active>  (563) 
0.0

>  <bits>  (563) 
<rdkit.DataStructs.cDataStructs.ExplicitBitVect object at 0x00000193F33EB840>

>  <Group>  (563) 
G2

$$$$

     RDKit          2D

 30 33  0  0  0  0  0  0  0  0999 V2000
   -3.0000    0.0000    0.0000 O   0  0  0  0  0  0  0  0  0  0  0  0
   -3.7500   -1.2990    0.0000 C   0  0  0  0  0  0  0  0  0  0  0  0
   -3.0000   -2.5981    0.0000 C   0  0  0  0  0  0  0  0  0  0  0  0
   -1.5000   -2.5981    0.0000 N   0  0  0  0  0  0  0  0  0  0  0  0
   -0.7500   -3.8971    0.0000 C   0  0  0  0  0  0  0  0  0  0  0  0
   -1.5000   -5.1962    0.0000 O   0  0  0  0  0  0  0  0  0  0  0  0
    0.7500   -3.8971    0.0000 C   0  0  0  0  0  0  0  0  0  0  0  0
    1.5000   -2.5981    0.0000 C   0  0  0  0  0  0  0  0  0  0  0  0
    0.7500   -1.2990    0.0000 C   0  0  0  0  0  0  0  0  0  0  0  0
    1.5000    0.0000    0.0000 C   0  0  0  0  0  0  0  0  0  0  0  0
    0.7500    1.2990    0.0000 C   0  0  0  0  0  0  0  0  0  0  0  0
    1.5000    2.5981    0.0000 C   0  0  0  0  0  0  0  0  0  0  0  0
    2.2500    3.8971    0.0000 F   0  0  0  0  0  0  0  0  0  0  0  0
    2.7990    1.8481    0.0000 F   0  0  0  0  0  0  0  0  0  0  0  0
    0.2010    3.3481    0.0000 F   0  0  0  0  0  0  0  0  0  0  0  0
   -0.7500    1.2990    0.0000 C   0  0  0  0  0  0  0  0  0  0  0  0
   -1.5000    0.0000    0.0000 C   0  0  0  0  0  0  0  0  0  0  0  0
   -0.7500   -1.2990    0.0000 C   0  0  0  0  0  0  0  0  0  0  0  0
   -5.2500   -1.2990    0.0000 N   0  0  0  0  0  0  0  0  0  0  0  0
   -6.0000    0.0000    0.0000 C   0  0  0  0  0  0  0  0  0  0  0  0
   -5.3899    1.3703    0.0000 S   0  0  0  0  0  0  0  0  0  0  0  0
   -6.5046    2.3740    0.0000 C   0  0  0  0  0  0  0  0  0  0  0  0
   -7.8037    1.6240    0.0000 C   0  0  0  0  0  0  0  0  0  0  0  0
   -9.1740    2.2341    0.0000 Br  0  0  0  0  0  0  0  0  0  0  0  0
   -7.4918    0.1568    0.0000 C   0  0  0  0  0  0  0  0  0  0  0  0
   -8.4955   -0.9579    0.0000 C   0  0  0  0  0  0  0  0  0  0  0  0
   -8.1836   -2.4251    0.0000 N   0  0  0  0  0  0  0  0  0  0  0  0
   -9.4826   -3.1751    0.0000 C   0  0  0  0  0  0  0  0  0  0  0  0
  -10.5974   -2.1715    0.0000 N   0  0  0  0  0  0  0  0  0  0  0  0
   -9.9873   -0.8011    0.0000 N   0  0  0  0  0  0  0  0  0  0  0  0
  1  2  2  0
  2  3  1  0
  3  4  1  0
  4  5  1  0
  5  6  2  0
  5  7  1  0
  7  8  2  0
  8  9  1  0
  9 10  2  0
 10 11  1  0
 11 12  1  0
 12 13  1  0
 12 14  1  0
 12 15  1  0
 11 16  2  0
 16 17  1  0
 17 18  2  0
  2 19  1  0
 19 20  1  0
 20 21  1  0
 21 22  1  0
 22 23  2  0
 23 24  1  0
 23 25  1  0
 25 26  1  0
 26 27  2  0
 27 28  1  0
 28 29  2  0
 29 30  1  0
 18  4  1  0
 25 20  2  0
 30 26  1  0
 18  9  1  0
M  END
>  <Compound_ID>  (564) 
CHEMBL1822146

>  <Molecule Name>  (564) 
nan

>  <Molecular Weight>  (564) 
498.28

>  <AlogP>  (564) 
4.27

>  <Smiles>  (564) 
O=C(Cn1c(=O)ccc2cc(C(F)(F)F)ccc21)Nc1scc(Br)c1-c1ncn[nH]1

>  <Standard Type>  (564) 
Inhibition

>  <Standard Relation>  (564) 
'='

>  <Standard Units>  (564) 
%

>  <Standard Value>  (564) 
15.0

>  <Assay ChEMBL ID>  (564) 
CHEMBL1825794

>  <Assay Description>  (564) 
Inhibition of SYK at 10 uM

>  <BAO Format ID>  (564) 
BAO_0000357

>  <BAO Label>  (564) 
single protein format

>  <Assay Organism>  (564) 
None

>  <Target ChEMBL ID>  (564) 
CHEMBL2599

>  <Target Name>  (564) 
Tyrosine-protein kinase SYK

>  <Target Organism>  (564) 
Homo sapiens

>  <Target Type>  (564) 
SINGLE PROTEIN

>  <Document ChEMBL ID>  (564) 
CHEMBL1821697

>  <Source Description>  (564) 
Scientific Literature

>  <Document Journal>  (564) 
Bioorg Med Chem Lett

>  <Document Year>  (564) 
2011.0

>  <Active>  (564) 
0.0

>  <bits>  (564) 
<rdkit.DataStructs.cDataStructs.ExplicitBitVect object at 0x00000193F33E9070>

>  <Group>  (564) 
G2

$$$$

     RDKit          2D

 26 28  0  0  0  0  0  0  0  0999 V2000
   -1.0896  -10.5178    0.0000 C   0  0  0  0  0  0  0  0  0  0  0  0
    0.4022  -10.3610    0.0000 C   0  0  0  0  0  0  0  0  0  0  0  0
    1.8940  -10.2042    0.0000 C   0  0  0  0  0  0  0  0  0  0  0  0
    0.5590  -11.8528    0.0000 C   0  0  0  0  0  0  0  0  0  0  0  0
    0.2454   -8.8692    0.0000 C   0  0  0  0  0  0  0  0  0  0  0  0
    1.3601   -7.8655    0.0000 C   0  0  0  0  0  0  0  0  0  0  0  0
    0.7500   -6.4952    0.0000 C   0  0  0  0  0  0  0  0  0  0  0  0
    1.5000   -5.1962    0.0000 N   0  0  0  0  0  0  0  0  0  0  0  0
    0.7500   -3.8971    0.0000 C   0  0  0  0  0  0  0  0  0  0  0  0
   -0.7500   -3.8971    0.0000 O   0  0  0  0  0  0  0  0  0  0  0  0
    1.5000   -2.5981    0.0000 N   0  0  0  0  0  0  0  0  0  0  0  0
    0.7500   -1.2990    0.0000 C   0  0  0  0  0  0  0  0  0  0  0  0
    1.5000    0.0000    0.0000 C   0  0  0  0  0  0  0  0  0  0  0  0
    0.7500    1.2990    0.0000 C   0  0  0  0  0  0  0  0  0  0  0  0
   -0.7500    1.2990    0.0000 C   0  0  0  0  0  0  0  0  0  0  0  0
   -1.5000    2.5981    0.0000 O   0  0  0  0  0  0  0  0  0  0  0  0
   -0.7500    3.8971    0.0000 C   0  0  0  0  0  0  0  0  0  0  0  0
    0.7500    3.8971    0.0000 C   0  0  0  0  0  0  0  0  0  0  0  0
    1.5000    5.1962    0.0000 C   0  0  0  0  0  0  0  0  0  0  0  0
    0.7500    6.4952    0.0000 N   0  0  0  0  0  0  0  0  0  0  0  0
   -0.7500    6.4952    0.0000 C   0  0  0  0  0  0  0  0  0  0  0  0
   -1.5000    5.1962    0.0000 C   0  0  0  0  0  0  0  0  0  0  0  0
   -1.5000    0.0000    0.0000 C   0  0  0  0  0  0  0  0  0  0  0  0
   -0.7500   -1.2990    0.0000 C   0  0  0  0  0  0  0  0  0  0  0  0
   -0.7418   -6.6520    0.0000 N   0  0  0  0  0  0  0  0  0  0  0  0
   -1.0537   -8.1192    0.0000 O   0  0  0  0  0  0  0  0  0  0  0  0
  1  2  1  0
  2  3  1  0
  2  4  1  0
  2  5  1  0
  5  6  2  0
  6  7  1  0
  7  8  1  0
  8  9  1  0
  9 10  2  0
  9 11  1  0
 11 12  1  0
 12 13  2  0
 13 14  1  0
 14 15  2  0
 15 16  1  0
 16 17  1  0
 17 18  2  0
 18 19  1  0
 19 20  2  0
 20 21  1  0
 21 22  2  0
 15 23  1  0
 23 24  2  0
  7 25  2  0
 25 26  1  0
 26  5  1  0
 24 12  1  0
 22 17  1  0
M  END
>  <Compound_ID>  (565) 
CHEMBL166031

>  <Molecule Name>  (565) 
nan

>  <Molecular Weight>  (565) 
352.39

>  <AlogP>  (565) 
4.80

>  <Smiles>  (565) 
CC(C)(C)c1cc(NC(=O)Nc2ccc(Oc3ccncc3)cc2)no1

>  <Standard Type>  (565) 
Inhibition

>  <Standard Relation>  (565) 
'='

>  <Standard Units>  (565) 
%

>  <Standard Value>  (565) 
6.66

>  <Assay ChEMBL ID>  (565) 
CHEMBL3631488

>  <Assay Description>  (565) 
Inhibition of SYK (unknown origin) at 10 uM after 120 mins P33 radiolabeled kinase activity assay

>  <BAO Format ID>  (565) 
BAO_0000357

>  <BAO Label>  (565) 
single protein format

>  <Assay Organism>  (565) 
Homo sapiens

>  <Target ChEMBL ID>  (565) 
CHEMBL2599

>  <Target Name>  (565) 
Tyrosine-protein kinase SYK

>  <Target Organism>  (565) 
Homo sapiens

>  <Target Type>  (565) 
SINGLE PROTEIN

>  <Document ChEMBL ID>  (565) 
CHEMBL3627608

>  <Source Description>  (565) 
Scientific Literature

>  <Document Journal>  (565) 
Bioorg Med Chem

>  <Document Year>  (565) 
2015.0

>  <Active>  (565) 
0.0

>  <bits>  (565) 
<rdkit.DataStructs.cDataStructs.ExplicitBitVect object at 0x00000193F33EBD10>

>  <Group>  (565) 
G2

$$$$

     RDKit          2D

 30 33  0  0  0  0  0  0  0  0999 V2000
  -10.0849   -6.9740    0.0000 N   0  0  0  0  0  0  0  0  0  0  0  0
   -8.6583   -6.5105    0.0000 S   0  0  0  0  0  0  0  0  0  0  0  0
   -9.1218   -5.0839    0.0000 O   0  0  0  0  0  0  0  0  0  0  0  0
   -8.1948   -7.9371    0.0000 O   0  0  0  0  0  0  0  0  0  0  0  0
   -7.2317   -6.0469    0.0000 C   0  0  0  0  0  0  0  0  0  0  0  0
   -6.9199   -4.5797    0.0000 C   0  0  0  0  0  0  0  0  0  0  0  0
   -5.4933   -4.1162    0.0000 C   0  0  0  0  0  0  0  0  0  0  0  0
   -4.3786   -5.1199    0.0000 C   0  0  0  0  0  0  0  0  0  0  0  0
   -2.9520   -4.6564    0.0000 N   0  0  0  0  0  0  0  0  0  0  0  0
   -2.6401   -3.1891    0.0000 N   0  0  0  0  0  0  0  0  0  0  0  0
   -1.2135   -2.7256    0.0000 C   0  0  0  0  0  0  0  0  0  0  0  0
   -0.0000   -3.6073    0.0000 C   0  0  0  0  0  0  0  0  0  0  0  0
    0.0000   -5.1073    0.0000 O   0  0  0  0  0  0  0  0  0  0  0  0
    1.2135   -2.7256    0.0000 N   0  0  0  0  0  0  0  0  0  0  0  0
    0.7500   -1.2990    0.0000 C   0  0  0  0  0  0  0  0  0  0  0  0
    1.5000    0.0000    0.0000 C   0  0  0  0  0  0  0  0  0  0  0  0
    0.7500    1.2990    0.0000 C   0  0  0  0  0  0  0  0  0  0  0  0
   -0.7500    1.2990    0.0000 C   0  0  0  0  0  0  0  0  0  0  0  0
   -1.5000    0.0000    0.0000 C   0  0  0  0  0  0  0  0  0  0  0  0
   -3.0000    0.0000    0.0000 C   0  0  0  0  0  0  0  0  0  0  0  0
   -3.7500    1.2990    0.0000 C   0  0  0  0  0  0  0  0  0  0  0  0
   -5.2500    1.2990    0.0000 C   0  0  0  0  0  0  0  0  0  0  0  0
   -6.0000    2.5981    0.0000 C   0  0  0  0  0  0  0  0  0  0  0  0
   -7.5000    2.5981    0.0000 C   0  0  0  0  0  0  0  0  0  0  0  0
   -8.2500    1.2990    0.0000 N   0  0  0  0  0  0  0  0  0  0  0  0
   -7.5000    0.0000    0.0000 C   0  0  0  0  0  0  0  0  0  0  0  0
   -6.0000    0.0000    0.0000 C   0  0  0  0  0  0  0  0  0  0  0  0
   -0.7500   -1.2990    0.0000 C   0  0  0  0  0  0  0  0  0  0  0  0
   -4.6904   -6.5871    0.0000 C   0  0  0  0  0  0  0  0  0  0  0  0
   -6.1170   -7.0506    0.0000 C   0  0  0  0  0  0  0  0  0  0  0  0
  1  2  1  0
  2  3  2  0
  2  4  2  0
  2  5  1  0
  5  6  2  0
  6  7  1  0
  7  8  2  0
  8  9  1  0
  9 10  1  0
 10 11  2  0
 11 12  1  0
 12 13  2  0
 12 14  1  0
 14 15  1  0
 15 16  2  0
 16 17  1  0
 17 18  2  0
 18 19  1  0
 19 20  1  0
 20 21  1  0
 21 22  1  0
 22 23  2  0
 23 24  1  0
 24 25  2  0
 25 26  1  0
 26 27  2  0
 19 28  2  0
  8 29  1  0
 29 30  2  0
 30  5  1  0
 28 11  1  0
 28 15  1  0
 27 22  1  0
M  END
>  <Compound_ID>  (566) 
CHEMBL1909399

>  <Molecule Name>  (566) 
GW352430A

>  <Molecular Weight>  (566) 
457.94

>  <AlogP>  (566) 
2.28

>  <Smiles>  (566) 
NS(=O)(=O)c1ccc(N/N=C2\C(=O)Nc3cccc(CCc4ccncc4)c32)cc1

>  <Standard Type>  (566) 
Inhibition

>  <Standard Relation>  (566) 
'='

>  <Standard Units>  (566) 
%

>  <Standard Value>  (566) 
0.03

>  <Assay ChEMBL ID>  (566) 
CHEMBL1962174

>  <Assay Description>  (566) 
GSK_PKIS: SYK mean inhibition at 0.1 uM [Nanosyn]

>  <BAO Format ID>  (566) 
BAO_0000357

>  <BAO Label>  (566) 
single protein format

>  <Assay Organism>  (566) 
None

>  <Target ChEMBL ID>  (566) 
CHEMBL2599

>  <Target Name>  (566) 
Tyrosine-protein kinase SYK

>  <Target Organism>  (566) 
Homo sapiens

>  <Target Type>  (566) 
SINGLE PROTEIN

>  <Document ChEMBL ID>  (566) 
CHEMBL1961873

>  <Source Description>  (566) 
GSK Published Kinase Inhibitor Set

>  <Document Journal>  (566) 
nan

>  <Document Year>  (566) 
nan

>  <Active>  (566) 
0.0

>  <bits>  (566) 
<rdkit.DataStructs.cDataStructs.ExplicitBitVect object at 0x00000193F33EA420>

>  <Group>  (566) 
G2

$$$$

     RDKit          2D

 25 27  0  0  0  0  0  0  0  0999 V2000
    1.8478   -6.4639    0.0000 O   0  0  0  0  0  0  0  0  0  0  0  0
    2.0046   -4.9721    0.0000 C   0  0  0  0  0  0  0  0  0  0  0  0
    3.3037   -4.2221    0.0000 N   0  0  0  0  0  0  0  0  0  0  0  0
    2.9918   -2.7549    0.0000 C   0  0  0  0  0  0  0  0  0  0  0  0
    3.9955   -1.6402    0.0000 O   0  0  0  0  0  0  0  0  0  0  0  0
    1.5000   -2.5981    0.0000 C   0  0  0  0  0  0  0  0  0  0  0  0
    0.7500   -1.2990    0.0000 C   0  0  0  0  0  0  0  0  0  0  0  0
    1.5000    0.0000    0.0000 C   0  0  0  0  0  0  0  0  0  0  0  0
    0.7500    1.2990    0.0000 C   0  0  0  0  0  0  0  0  0  0  0  0
   -0.7500    1.2990    0.0000 C   0  0  0  0  0  0  0  0  0  0  0  0
   -1.5000    0.0000    0.0000 C   0  0  0  0  0  0  0  0  0  0  0  0
   -3.0000    0.0000    0.0000 Cl  0  0  0  0  0  0  0  0  0  0  0  0
   -0.7500   -1.2990    0.0000 C   0  0  0  0  0  0  0  0  0  0  0  0
    0.8899   -3.9684    0.0000 C   0  0  0  0  0  0  0  0  0  0  0  0
   -0.5773   -4.2803    0.0000 N   0  0  0  0  0  0  0  0  0  0  0  0
   -1.0409   -5.7068    0.0000 C   0  0  0  0  0  0  0  0  0  0  0  0
   -2.5081   -6.0187    0.0000 C   0  0  0  0  0  0  0  0  0  0  0  0
   -2.9716   -7.4453    0.0000 C   0  0  0  0  0  0  0  0  0  0  0  0
   -1.9679   -8.5600    0.0000 C   0  0  0  0  0  0  0  0  0  0  0  0
   -2.4314   -9.9866    0.0000 Cl  0  0  0  0  0  0  0  0  0  0  0  0
   -0.5007   -8.2481    0.0000 C   0  0  0  0  0  0  0  0  0  0  0  0
    0.5030   -9.3629    0.0000 C   0  0  0  0  0  0  0  0  0  0  0  0
    1.9702   -9.0510    0.0000 O   0  0  0  0  0  0  0  0  0  0  0  0
    0.0395  -10.7895    0.0000 O   0  0  0  0  0  0  0  0  0  0  0  0
   -0.0372   -6.8216    0.0000 C   0  0  0  0  0  0  0  0  0  0  0  0
  1  2  2  0
  2  3  1  0
  3  4  1  0
  4  5  2  0
  4  6  1  0
  6  7  1  0
  7  8  2  0
  8  9  1  0
  9 10  2  0
 10 11  1  0
 11 12  1  0
 11 13  2  0
  6 14  2  0
 14 15  1  0
 15 16  1  0
 16 17  2  0
 17 18  1  0
 18 19  2  0
 19 20  1  0
 19 21  1  0
 21 22  1  0
 22 23  2  0
 22 24  1  0
 21 25  2  0
 14  2  1  0
 25 16  1  0
 13  7  1  0
M  END
>  <Compound_ID>  (567) 
CHEMBL156987

>  <Molecule Name>  (567) 
nan

>  <Molecular Weight>  (567) 
377.18

>  <AlogP>  (567) 
3.17

>  <Smiles>  (567) 
O=C1NC(=O)C(c2cccc(Cl)c2)=C1Nc1ccc(Cl)c(C(=O)O)c1

>  <Standard Type>  (567) 
Inhibition

>  <Standard Relation>  (567) 
'='

>  <Standard Units>  (567) 
%

>  <Standard Value>  (567) 
1.85

>  <Assay ChEMBL ID>  (567) 
CHEMBL1962174

>  <Assay Description>  (567) 
GSK_PKIS: SYK mean inhibition at 0.1 uM [Nanosyn]

>  <BAO Format ID>  (567) 
BAO_0000357

>  <BAO Label>  (567) 
single protein format

>  <Assay Organism>  (567) 
None

>  <Target ChEMBL ID>  (567) 
CHEMBL2599

>  <Target Name>  (567) 
Tyrosine-protein kinase SYK

>  <Target Organism>  (567) 
Homo sapiens

>  <Target Type>  (567) 
SINGLE PROTEIN

>  <Document ChEMBL ID>  (567) 
CHEMBL1961873

>  <Source Description>  (567) 
GSK Published Kinase Inhibitor Set

>  <Document Journal>  (567) 
nan

>  <Document Year>  (567) 
nan

>  <Active>  (567) 
0.0

>  <bits>  (567) 
<rdkit.DataStructs.cDataStructs.ExplicitBitVect object at 0x00000193F33EACE0>

>  <Group>  (567) 
G2

$$$$

     RDKit          2D

 29 32  0  0  0  0  0  0  0  0999 V2000
   -3.7548   -2.1855    0.0000 C   0  0  0  0  0  0  0  0  0  0  0  0
   -2.6401   -3.1891    0.0000 C   0  0  0  0  0  0  0  0  0  0  0  0
   -1.2135   -2.7256    0.0000 N   0  0  0  0  0  0  0  0  0  0  0  0
   -0.0000   -3.6073    0.0000 C   0  0  0  0  0  0  0  0  0  0  0  0
   -0.0000   -5.1073    0.0000 C   0  0  0  0  0  0  0  0  0  0  0  0
    1.2135   -5.9890    0.0000 N   0  0  0  0  0  0  0  0  0  0  0  0
    0.7500   -7.4156    0.0000 O   0  0  0  0  0  0  0  0  0  0  0  0
   -0.7500   -7.4156    0.0000 N   0  0  0  0  0  0  0  0  0  0  0  0
   -1.2135   -5.9890    0.0000 C   0  0  0  0  0  0  0  0  0  0  0  0
   -2.6401   -5.5255    0.0000 N   0  0  0  0  0  0  0  0  0  0  0  0
    1.2135   -2.7256    0.0000 N   0  0  0  0  0  0  0  0  0  0  0  0
    0.7500   -1.2990    0.0000 C   0  0  0  0  0  0  0  0  0  0  0  0
    1.5000    0.0000    0.0000 C   0  0  0  0  0  0  0  0  0  0  0  0
    3.0000    0.0000    0.0000 C   0  0  0  0  0  0  0  0  0  0  0  0
    4.5000    0.0000    0.0000 C   0  0  0  0  0  0  0  0  0  0  0  0
    6.0000    0.0000    0.0000 C   0  0  0  0  0  0  0  0  0  0  0  0
    6.0000   -1.5000    0.0000 C   0  0  0  0  0  0  0  0  0  0  0  0
    6.0000    1.5000    0.0000 C   0  0  0  0  0  0  0  0  0  0  0  0
    7.5000    0.0000    0.0000 O   0  0  0  0  0  0  0  0  0  0  0  0
    0.7500    1.2990    0.0000 N   0  0  0  0  0  0  0  0  0  0  0  0
   -0.7500    1.2990    0.0000 C   0  0  0  0  0  0  0  0  0  0  0  0
   -1.5000    2.5981    0.0000 C   0  0  0  0  0  0  0  0  0  0  0  0
   -0.7500    3.8971    0.0000 N   0  0  0  0  0  0  0  0  0  0  0  0
   -1.3601    5.2674    0.0000 C   0  0  0  0  0  0  0  0  0  0  0  0
   -0.2454    6.2711    0.0000 C   0  0  0  0  0  0  0  0  0  0  0  0
    1.0537    5.5211    0.0000 C   0  0  0  0  0  0  0  0  0  0  0  0
    0.7418    4.0539    0.0000 C   0  0  0  0  0  0  0  0  0  0  0  0
   -1.5000    0.0000    0.0000 C   0  0  0  0  0  0  0  0  0  0  0  0
   -0.7500   -1.2990    0.0000 C   0  0  0  0  0  0  0  0  0  0  0  0
  1  2  1  0
  2  3  1  0
  3  4  1  0
  4  5  1  0
  5  6  2  0
  6  7  1  0
  7  8  1  0
  8  9  2  0
  9 10  1  0
  4 11  2  0
 11 12  1  0
 12 13  2  0
 13 14  1  0
 14 15  3  0
 15 16  1  0
 16 17  1  0
 16 18  1  0
 16 19  1  0
 13 20  1  0
 20 21  2  0
 21 22  1  0
 22 23  1  0
 23 24  1  0
 24 25  1  0
 25 26  1  0
 26 27  1  0
 21 28  1  0
 28 29  2  0
 29  3  1  0
  9  5  1  0
 29 12  1  0
 27 23  1  0
M  END
>  <Compound_ID>  (568) 
CHEMBL1096290

>  <Molecule Name>  (568) 
GSK-1000163A

>  <Molecular Weight>  (568) 
395.47

>  <AlogP>  (568) 
1.80

>  <Smiles>  (568) 
CCn1c(-c2nonc2N)nc2c(C#CC(C)(C)O)nc(CN3CCCC3)cc21

>  <Standard Type>  (568) 
Inhibition

>  <Standard Relation>  (568) 
'='

>  <Standard Units>  (568) 
%

>  <Standard Value>  (568) 
6.45

>  <Assay ChEMBL ID>  (568) 
CHEMBL1962174

>  <Assay Description>  (568) 
GSK_PKIS: SYK mean inhibition at 0.1 uM [Nanosyn]

>  <BAO Format ID>  (568) 
BAO_0000357

>  <BAO Label>  (568) 
single protein format

>  <Assay Organism>  (568) 
None

>  <Target ChEMBL ID>  (568) 
CHEMBL2599

>  <Target Name>  (568) 
Tyrosine-protein kinase SYK

>  <Target Organism>  (568) 
Homo sapiens

>  <Target Type>  (568) 
SINGLE PROTEIN

>  <Document ChEMBL ID>  (568) 
CHEMBL1961873

>  <Source Description>  (568) 
GSK Published Kinase Inhibitor Set

>  <Document Journal>  (568) 
nan

>  <Document Year>  (568) 
nan

>  <Active>  (568) 
0.0

>  <bits>  (568) 
<rdkit.DataStructs.cDataStructs.ExplicitBitVect object at 0x00000193F33EBBC0>

>  <Group>  (568) 
G2

$$$$

     RDKit          2D

 28 32  0  0  0  0  0  0  0  0999 V2000
   -5.1814   -2.6490    0.0000 C   0  0  0  0  0  0  0  0  0  0  0  0
   -3.7548   -2.1855    0.0000 C   0  0  0  0  0  0  0  0  0  0  0  0
   -2.6401   -3.1891    0.0000 C   0  0  0  0  0  0  0  0  0  0  0  0
   -1.2135   -2.7256    0.0000 C   0  0  0  0  0  0  0  0  0  0  0  0
   -0.0000   -3.6073    0.0000 N   0  0  0  0  0  0  0  0  0  0  0  0
    1.2135   -2.7256    0.0000 N   0  0  0  0  0  0  0  0  0  0  0  0
    0.7500   -1.2990    0.0000 C   0  0  0  0  0  0  0  0  0  0  0  0
    1.5000    0.0000    0.0000 C   0  0  0  0  0  0  0  0  0  0  0  0
    0.7500    1.2990    0.0000 C   0  0  0  0  0  0  0  0  0  0  0  0
   -0.7500    1.2990    0.0000 N   0  0  0  0  0  0  0  0  0  0  0  0
   -1.5000    0.0000    0.0000 C   0  0  0  0  0  0  0  0  0  0  0  0
   -3.0000    0.0000    0.0000 O   0  0  0  0  0  0  0  0  0  0  0  0
   -3.7500    1.2990    0.0000 C   0  0  0  0  0  0  0  0  0  0  0  0
   -3.0000    2.5981    0.0000 C   0  0  0  0  0  0  0  0  0  0  0  0
   -3.7500    3.8971    0.0000 C   0  0  0  0  0  0  0  0  0  0  0  0
   -5.2500    3.8971    0.0000 O   0  0  0  0  0  0  0  0  0  0  0  0
   -6.0000    2.5981    0.0000 C   0  0  0  0  0  0  0  0  0  0  0  0
   -5.2500    1.2990    0.0000 C   0  0  0  0  0  0  0  0  0  0  0  0
   -0.7500   -1.2990    0.0000 C   0  0  0  0  0  0  0  0  0  0  0  0
   -2.9520   -4.6564    0.0000 C   0  0  0  0  0  0  0  0  0  0  0  0
   -4.3786   -5.1199    0.0000 C   0  0  0  0  0  0  0  0  0  0  0  0
   -4.6904   -6.5871    0.0000 N   0  0  0  0  0  0  0  0  0  0  0  0
   -6.1170   -7.0506    0.0000 C   0  0  0  0  0  0  0  0  0  0  0  0
   -6.4289   -8.5179    0.0000 C   0  0  0  0  0  0  0  0  0  0  0  0
   -5.3142   -9.5216    0.0000 O   0  0  0  0  0  0  0  0  0  0  0  0
   -3.8876   -9.0580    0.0000 C   0  0  0  0  0  0  0  0  0  0  0  0
   -3.5757   -7.5908    0.0000 C   0  0  0  0  0  0  0  0  0  0  0  0
   -5.4933   -4.1162    0.0000 N   0  0  0  0  0  0  0  0  0  0  0  0
  1  2  2  0
  2  3  1  0
  3  4  1  0
  4  5  2  0
  5  6  1  0
  6  7  1  0
  7  8  2  0
  8  9  1  0
  9 10  2  0
 10 11  1  0
 11 12  1  0
 12 13  1  0
 13 14  1  0
 14 15  1  0
 15 16  1  0
 16 17  1  0
 17 18  1  0
 11 19  2  0
  3 20  2  0
 20 21  1  0
 21 22  1  0
 22 23  1  0
 23 24  1  0
 24 25  1  0
 25 26  1  0
 26 27  1  0
 21 28  2  0
 28  1  1  0
 19  4  1  0
 27 22  1  0
 19  7  1  0
 18 13  1  0
M  END
>  <Compound_ID>  (569) 
CHEMBL4460272

>  <Molecule Name>  (569) 
nan

>  <Molecular Weight>  (569) 
381.44

>  <AlogP>  (569) 
2.41

>  <Smiles>  (569) 
c1cc(-c2n[nH]c3ccnc(OC4CCOCC4)c23)cc(N2CCOCC2)n1

>  <Standard Type>  (569) 
Inhibition

>  <Standard Relation>  (569) 
'='

>  <Standard Units>  (569) 
%

>  <Standard Value>  (569) 
0.0

>  <Assay ChEMBL ID>  (569) 
CHEMBL4332020

>  <Assay Description>  (569) 
Inhibition of SYK (unknown origin) at 1 uM relative to control

>  <BAO Format ID>  (569) 
BAO_0000357

>  <BAO Label>  (569) 
single protein format

>  <Assay Organism>  (569) 
Homo sapiens

>  <Target ChEMBL ID>  (569) 
CHEMBL2599

>  <Target Name>  (569) 
Tyrosine-protein kinase SYK

>  <Target Organism>  (569) 
Homo sapiens

>  <Target Type>  (569) 
SINGLE PROTEIN

>  <Document ChEMBL ID>  (569) 
CHEMBL4330096

>  <Source Description>  (569) 
Scientific Literature

>  <Document Journal>  (569) 
Bioorg Med Chem Lett

>  <Document Year>  (569) 
2019.0

>  <Active>  (569) 
0.0

>  <bits>  (569) 
<rdkit.DataStructs.cDataStructs.ExplicitBitVect object at 0x00000193F33EAF80>

>  <Group>  (569) 
G2

$$$$

     RDKit          2D

 36 41  0  0  0  0  0  0  0  0999 V2000
   -3.9955   -4.2382    0.0000 O   0  0  0  0  0  0  0  0  0  0  0  0
   -2.9918   -5.3529    0.0000 C   0  0  0  0  0  0  0  0  0  0  0  0
   -3.3037   -6.8202    0.0000 N   0  0  0  0  0  0  0  0  0  0  0  0
   -4.6740   -7.4303    0.0000 C   0  0  0  0  0  0  0  0  0  0  0  0
   -4.8308   -8.9221    0.0000 C   0  0  0  0  0  0  0  0  0  0  0  0
   -6.2011   -9.5322    0.0000 C   0  0  0  0  0  0  0  0  0  0  0  0
   -6.3579  -11.0239    0.0000 C   0  0  0  0  0  0  0  0  0  0  0  0
   -5.1443  -11.9056    0.0000 C   0  0  0  0  0  0  0  0  0  0  0  0
   -3.7740  -11.2955    0.0000 C   0  0  0  0  0  0  0  0  0  0  0  0
   -3.6172   -9.8037    0.0000 N   0  0  0  0  0  0  0  0  0  0  0  0
   -2.0046   -7.5702    0.0000 N   0  0  0  0  0  0  0  0  0  0  0  0
   -0.8899   -6.5665    0.0000 C   0  0  0  0  0  0  0  0  0  0  0  0
    0.5773   -6.8783    0.0000 C   0  0  0  0  0  0  0  0  0  0  0  0
    1.0409   -8.3049    0.0000 C   0  0  0  0  0  0  0  0  0  0  0  0
    2.5081   -8.6168    0.0000 C   0  0  0  0  0  0  0  0  0  0  0  0
    3.5118   -7.5021    0.0000 N   0  0  0  0  0  0  0  0  0  0  0  0
    3.0482   -6.0755    0.0000 C   0  0  0  0  0  0  0  0  0  0  0  0
    4.0519   -4.9608    0.0000 N   0  0  0  0  0  0  0  0  0  0  0  0
    5.5192   -5.2726    0.0000 C   0  0  0  0  0  0  0  0  0  0  0  0
    5.9827   -6.6992    0.0000 C   0  0  0  0  0  0  0  0  0  0  0  0
    7.4499   -7.0111    0.0000 C   0  0  0  0  0  0  0  0  0  0  0  0
    8.4536   -5.8964    0.0000 O   0  0  0  0  0  0  0  0  0  0  0  0
    7.9901   -4.4698    0.0000 C   0  0  0  0  0  0  0  0  0  0  0  0
    6.5229   -4.1579    0.0000 C   0  0  0  0  0  0  0  0  0  0  0  0
    1.5810   -5.7636    0.0000 C   0  0  0  0  0  0  0  0  0  0  0  0
   -1.5000   -5.1962    0.0000 N   0  0  0  0  0  0  0  0  0  0  0  0
   -0.7500   -3.8971    0.0000 C   0  0  0  0  0  0  0  0  0  0  0  0
    0.7500   -3.8971    0.0000 C   0  0  0  0  0  0  0  0  0  0  0  0
    1.5000   -2.5981    0.0000 C   0  0  0  0  0  0  0  0  0  0  0  0
    0.7500   -1.2990    0.0000 C   0  0  0  0  0  0  0  0  0  0  0  0
    1.5000    0.0000    0.0000 C   0  0  0  0  0  0  0  0  0  0  0  0
    0.7500    1.2990    0.0000 C   0  0  0  0  0  0  0  0  0  0  0  0
   -0.7500    1.2990    0.0000 C   0  0  0  0  0  0  0  0  0  0  0  0
   -1.5000    0.0000    0.0000 C   0  0  0  0  0  0  0  0  0  0  0  0
   -0.7500   -1.2990    0.0000 C   0  0  0  0  0  0  0  0  0  0  0  0
   -1.5000   -2.5981    0.0000 C   0  0  0  0  0  0  0  0  0  0  0  0
  1  2  2  0
  2  3  1  0
  3  4  1  0
  4  5  1  0
  5  6  2  0
  6  7  1  0
  7  8  2  0
  8  9  1  0
  9 10  2  0
  3 11  1  0
 11 12  2  0
 12 13  1  0
 13 14  2  0
 14 15  1  0
 15 16  2  0
 16 17  1  0
 17 18  1  0
 18 19  1  0
 19 20  1  0
 20 21  1  0
 21 22  1  0
 22 23  1  0
 23 24  1  0
 17 25  2  0
 12 26  1  0
 26 27  1  0
 27 28  2  0
 28 29  1  0
 29 30  2  0
 30 31  1  0
 31 32  2  0
 32 33  1  0
 33 34  2  0
 34 35  1  0
 35 36  2  0
 26  2  1  0
 36 27  1  0
 10  5  1  0
 25 13  1  0
 35 30  1  0
 24 19  1  0
M  END
>  <Compound_ID>  (570) 
CHEMBL1644615

>  <Molecule Name>  (570) 
nan

>  <Molecular Weight>  (570) 
478.56

>  <AlogP>  (570) 
4.28

>  <Smiles>  (570) 
O=c1n(Cc2ccccn2)nc(-c2ccnc(NC3CCOCC3)c2)n1-c1ccc2ccccc2c1

>  <Standard Type>  (570) 
Inhibition

>  <Standard Relation>  (570) 
'='

>  <Standard Units>  (570) 
%

>  <Standard Value>  (570) 
1.0

>  <Assay ChEMBL ID>  (570) 
CHEMBL1648824

>  <Assay Description>  (570) 
Inhibition of SYK at 10 uM after 60 mins by TR-FRET assay

>  <BAO Format ID>  (570) 
BAO_0000357

>  <BAO Label>  (570) 
single protein format

>  <Assay Organism>  (570) 
None

>  <Target ChEMBL ID>  (570) 
CHEMBL2599

>  <Target Name>  (570) 
Tyrosine-protein kinase SYK

>  <Target Organism>  (570) 
Homo sapiens

>  <Target Type>  (570) 
SINGLE PROTEIN

>  <Document ChEMBL ID>  (570) 
CHEMBL1641539

>  <Source Description>  (570) 
Scientific Literature

>  <Document Journal>  (570) 
Bioorg Med Chem Lett

>  <Document Year>  (570) 
2011.0

>  <Active>  (570) 
0.0

>  <bits>  (570) 
<rdkit.DataStructs.cDataStructs.ExplicitBitVect object at 0x00000193F33EA730>

>  <Group>  (570) 
G2

$$$$

     RDKit          2D

 31 36  0  0  0  0  0  0  0  0999 V2000
   -0.5773   -4.2803    0.0000 C   0  0  0  0  0  0  0  0  0  0  0  0
    0.8899   -3.9684    0.0000 C   0  0  0  0  0  0  0  0  0  0  0  0
    2.0046   -4.9721    0.0000 N   0  0  0  0  0  0  0  0  0  0  0  0
    3.3037   -4.2221    0.0000 N   0  0  0  0  0  0  0  0  0  0  0  0
    2.9918   -2.7549    0.0000 C   0  0  0  0  0  0  0  0  0  0  0  0
    3.9955   -1.6402    0.0000 C   0  0  0  0  0  0  0  0  0  0  0  0
    4.3073   -0.1729    0.0000 C   0  0  0  0  0  0  0  0  0  0  0  0
    5.4221   -1.1766    0.0000 C   0  0  0  0  0  0  0  0  0  0  0  0
    1.5000   -2.5981    0.0000 C   0  0  0  0  0  0  0  0  0  0  0  0
    0.7500   -1.2990    0.0000 C   0  0  0  0  0  0  0  0  0  0  0  0
    1.5000    0.0000    0.0000 C   0  0  0  0  0  0  0  0  0  0  0  0
    0.7500    1.2990    0.0000 C   0  0  0  0  0  0  0  0  0  0  0  0
   -0.7500    1.2990    0.0000 C   0  0  0  0  0  0  0  0  0  0  0  0
   -1.7537    2.4138    0.0000 C   0  0  0  0  0  0  0  0  0  0  0  0
   -1.4418    3.8810    0.0000 C   0  0  0  0  0  0  0  0  0  0  0  0
   -0.0152    4.3445    0.0000 C   0  0  0  0  0  0  0  0  0  0  0  0
    0.2966    5.8117    0.0000 C   0  0  0  0  0  0  0  0  0  0  0  0
   -0.8181    6.8154    0.0000 C   0  0  0  0  0  0  0  0  0  0  0  0
   -0.5062    8.2826    0.0000 N   0  0  0  0  0  0  0  0  0  0  0  0
    0.9204    8.7462    0.0000 C   0  0  0  0  0  0  0  0  0  0  0  0
    1.2322   10.2134    0.0000 C   0  0  0  0  0  0  0  0  0  0  0  0
    0.1175   11.2171    0.0000 N   0  0  0  0  0  0  0  0  0  0  0  0
    0.4294   12.6843    0.0000 C   0  0  0  0  0  0  0  0  0  0  0  0
   -1.3091   10.7536    0.0000 C   0  0  0  0  0  0  0  0  0  0  0  0
   -1.6209    9.2863    0.0000 C   0  0  0  0  0  0  0  0  0  0  0  0
   -2.2447    6.3519    0.0000 N   0  0  0  0  0  0  0  0  0  0  0  0
   -2.5565    4.8847    0.0000 C   0  0  0  0  0  0  0  0  0  0  0  0
   -3.1240    1.8037    0.0000 N   0  0  0  0  0  0  0  0  0  0  0  0
   -2.9672    0.3119    0.0000 N   0  0  0  0  0  0  0  0  0  0  0  0
   -1.5000    0.0000    0.0000 C   0  0  0  0  0  0  0  0  0  0  0  0
   -0.7500   -1.2990    0.0000 C   0  0  0  0  0  0  0  0  0  0  0  0
  1  2  1  0
  2  3  1  0
  3  4  1  0
  4  5  2  0
  5  6  1  0
  6  7  1  0
  7  8  1  0
  5  9  1  0
  9 10  1  0
 10 11  2  0
 11 12  1  0
 12 13  2  0
 13 14  1  0
 14 15  1  0
 15 16  2  0
 16 17  1  0
 17 18  2  0
 18 19  1  0
 19 20  1  0
 20 21  1  0
 21 22  1  0
 22 23  1  0
 22 24  1  0
 24 25  1  0
 18 26  1  0
 26 27  2  0
 14 28  2  0
 28 29  1  0
 29 30  1  0
 30 31  2  0
  9  2  2  0
 31 10  1  0
  8  6  1  0
 30 13  1  0
 27 15  1  0
 25 19  1  0
M  END
>  <Compound_ID>  (571) 
CHEMBL4125807

>  <Molecule Name>  (571) 
nan

>  <Molecular Weight>  (571) 
413.53

>  <AlogP>  (571) 
3.95

>  <Smiles>  (571) 
Cc1[nH]nc(C2CC2)c1-c1ccc2c(-c3ccc(N4CCN(C)CC4)nc3)n[nH]c2c1

>  <Standard Type>  (571) 
Inhibition

>  <Standard Relation>  (571) 
'='

>  <Standard Units>  (571) 
%

>  <Standard Value>  (571) 
4.7

>  <Assay ChEMBL ID>  (571) 
CHEMBL4120552

>  <Assay Description>  (571) 
Inhibition of SYK (unknown origin) at 0.19 uM relative to control

>  <BAO Format ID>  (571) 
BAO_0000357

>  <BAO Label>  (571) 
single protein format

>  <Assay Organism>  (571) 
Homo sapiens

>  <Target ChEMBL ID>  (571) 
CHEMBL2599

>  <Target Name>  (571) 
Tyrosine-protein kinase SYK

>  <Target Organism>  (571) 
Homo sapiens

>  <Target Type>  (571) 
SINGLE PROTEIN

>  <Document ChEMBL ID>  (571) 
CHEMBL4118098

>  <Source Description>  (571) 
Scientific Literature

>  <Document Journal>  (571) 
Bioorg Med Chem Lett

>  <Document Year>  (571) 
2017.0

>  <Active>  (571) 
0.0

>  <bits>  (571) 
<rdkit.DataStructs.cDataStructs.ExplicitBitVect object at 0x00000193F33E8270>

>  <Group>  (571) 
G2

$$$$

     RDKit          2D

 38 43  0  0  0  0  0  0  0  0999 V2000
   -5.1962   -9.6073    0.0000 C   0  0  0  0  0  0  0  0  0  0  0  0
   -3.8971  -10.3573    0.0000 C   0  0  0  0  0  0  0  0  0  0  0  0
   -2.5981   -9.6073    0.0000 C   0  0  0  0  0  0  0  0  0  0  0  0
   -2.5981   -8.1073    0.0000 C   0  0  0  0  0  0  0  0  0  0  0  0
   -1.2990   -7.3573    0.0000 C   0  0  0  0  0  0  0  0  0  0  0  0
   -1.2990   -5.8573    0.0000 C   0  0  0  0  0  0  0  0  0  0  0  0
   -0.0000   -5.1073    0.0000 N   0  0  0  0  0  0  0  0  0  0  0  0
   -0.0000   -3.6073    0.0000 C   0  0  0  0  0  0  0  0  0  0  0  0
   -1.2135   -2.7256    0.0000 C   0  0  0  0  0  0  0  0  0  0  0  0
   -0.7500   -1.2990    0.0000 C   0  0  0  0  0  0  0  0  0  0  0  0
    0.7500   -1.2990    0.0000 N   0  0  0  0  0  0  0  0  0  0  0  0
    1.2135   -2.7256    0.0000 N   0  0  0  0  0  0  0  0  0  0  0  0
    1.5000    0.0000    0.0000 C   0  0  0  0  0  0  0  0  0  0  0  0
    0.7500    1.2990    0.0000 C   0  0  0  0  0  0  0  0  0  0  0  0
   -0.7500    1.2990    0.0000 N   0  0  0  0  0  0  0  0  0  0  0  0
   -1.5000    2.5981    0.0000 C   0  0  0  0  0  0  0  0  0  0  0  0
   -1.5000    0.0000    0.0000 C   0  0  0  0  0  0  0  0  0  0  0  0
   -2.5981   -5.1073    0.0000 C   0  0  0  0  0  0  0  0  0  0  0  0
   -2.5981   -3.6073    0.0000 O   0  0  0  0  0  0  0  0  0  0  0  0
   -3.8971   -5.8573    0.0000 N   0  0  0  0  0  0  0  0  0  0  0  0
   -3.8971   -7.3573    0.0000 N   0  0  0  0  0  0  0  0  0  0  0  0
   -1.2990  -10.3573    0.0000 C   0  0  0  0  0  0  0  0  0  0  0  0
   -1.2990  -11.8573    0.0000 C   0  0  0  0  0  0  0  0  0  0  0  0
   -2.5981  -12.6073    0.0000 C   0  0  0  0  0  0  0  0  0  0  0  0
   -2.5981  -14.1073    0.0000 F   0  0  0  0  0  0  0  0  0  0  0  0
   -3.8971  -11.8573    0.0000 C   0  0  0  0  0  0  0  0  0  0  0  0
   -5.1962  -12.6073    0.0000 N   0  0  0  0  0  0  0  0  0  0  0  0
   -6.4952  -11.8573    0.0000 C   0  0  0  0  0  0  0  0  0  0  0  0
   -6.4952  -10.3573    0.0000 O   0  0  0  0  0  0  0  0  0  0  0  0
   -7.7942  -12.6073    0.0000 C   0  0  0  0  0  0  0  0  0  0  0  0
   -9.1645  -11.9972    0.0000 C   0  0  0  0  0  0  0  0  0  0  0  0
  -10.1682  -13.1119    0.0000 C   0  0  0  0  0  0  0  0  0  0  0  0
  -11.6682  -13.1119    0.0000 C   0  0  0  0  0  0  0  0  0  0  0  0
  -12.4182  -14.4110    0.0000 C   0  0  0  0  0  0  0  0  0  0  0  0
  -11.6682  -15.7100    0.0000 C   0  0  0  0  0  0  0  0  0  0  0  0
  -10.1682  -15.7100    0.0000 C   0  0  0  0  0  0  0  0  0  0  0  0
   -9.4182  -14.4110    0.0000 C   0  0  0  0  0  0  0  0  0  0  0  0
   -7.9510  -14.0991    0.0000 S   0  0  0  0  0  0  0  0  0  0  0  0
  1  2  1  0
  2  3  2  0
  3  4  1  0
  4  5  1  0
  5  6  2  0
  6  7  1  0
  7  8  1  0
  8  9  1  0
  9 10  2  0
 10 11  1  0
 11 12  1  0
 11 13  1  0
 13 14  1  0
 14 15  1  0
 15 16  1  0
 15 17  1  0
  6 18  1  0
 18 19  2  0
 18 20  1  0
 20 21  1  0
  3 22  1  0
 22 23  2  0
 23 24  1  0
 24 25  1  0
 24 26  2  0
 26 27  1  0
 27 28  1  0
 28 29  2  0
 28 30  1  0
 30 31  2  0
 31 32  1  0
 32 33  2  0
 33 34  1  0
 34 35  2  0
 35 36  1  0
 36 37  2  0
 37 38  1  0
 26  2  1  0
 38 30  1  0
 21  4  2  0
 37 32  1  0
 12  8  2  0
 17 10  1  0
M  END
>  <Compound_ID>  (572) 
CHEMBL3746293

>  <Molecule Name>  (572) 
nan

>  <Molecular Weight>  (572) 
529.6

>  <AlogP>  (572) 
4.74

>  <Smiles>  (572) 
Cc1c(-c2cc(Nc3cc4n(n3)CCN(C)C4)c(=O)[nH]n2)ccc(F)c1NC(=O)c1cc2ccccc2s1

>  <Standard Type>  (572) 
Inhibition

>  <Standard Relation>  (572) 
'='

>  <Standard Units>  (572) 
%

>  <Standard Value>  (572) 
5.6

>  <Assay ChEMBL ID>  (572) 
CHEMBL3749846

>  <Assay Description>  (572) 
Inhibition of Syk (unknown origin) at 1 uM

>  <BAO Format ID>  (572) 
BAO_0000357

>  <BAO Label>  (572) 
single protein format

>  <Assay Organism>  (572) 
Homo sapiens

>  <Target ChEMBL ID>  (572) 
CHEMBL2599

>  <Target Name>  (572) 
Tyrosine-protein kinase SYK

>  <Target Organism>  (572) 
Homo sapiens

>  <Target Type>  (572) 
SINGLE PROTEIN

>  <Document ChEMBL ID>  (572) 
CHEMBL3745631

>  <Source Description>  (572) 
Scientific Literature

>  <Document Journal>  (572) 
Bioorg Med Chem Lett

>  <Document Year>  (572) 
2016.0

>  <Active>  (572) 
0.0

>  <bits>  (572) 
<rdkit.DataStructs.cDataStructs.ExplicitBitVect object at 0x00000193F33E8200>

>  <Group>  (572) 
G2

$$$$

     RDKit          2D

 15 17  0  0  0  0  0  0  0  0999 V2000
   -5.1814   -2.6490    0.0000 C   0  0  0  0  0  0  0  0  0  0  0  0
   -3.7548   -2.1855    0.0000 C   0  0  0  0  0  0  0  0  0  0  0  0
   -2.6401   -3.1891    0.0000 C   0  0  0  0  0  0  0  0  0  0  0  0
   -1.2135   -2.7256    0.0000 C   0  0  0  0  0  0  0  0  0  0  0  0
   -0.0000   -3.6073    0.0000 C   0  0  0  0  0  0  0  0  0  0  0  0
    1.2135   -2.7256    0.0000 N   0  0  0  0  0  0  0  0  0  0  0  0
    0.7500   -1.2990    0.0000 C   0  0  0  0  0  0  0  0  0  0  0  0
    1.5000    0.0000    0.0000 C   0  0  0  0  0  0  0  0  0  0  0  0
    0.7500    1.2990    0.0000 N   0  0  0  0  0  0  0  0  0  0  0  0
   -0.7500    1.2990    0.0000 C   0  0  0  0  0  0  0  0  0  0  0  0
   -1.5000    0.0000    0.0000 C   0  0  0  0  0  0  0  0  0  0  0  0
   -0.7500   -1.2990    0.0000 C   0  0  0  0  0  0  0  0  0  0  0  0
   -2.9520   -4.6564    0.0000 C   0  0  0  0  0  0  0  0  0  0  0  0
   -4.3786   -5.1199    0.0000 C   0  0  0  0  0  0  0  0  0  0  0  0
   -5.4933   -4.1162    0.0000 N   0  0  0  0  0  0  0  0  0  0  0  0
  1  2  2  0
  2  3  1  0
  3  4  1  0
  4  5  2  0
  5  6  1  0
  6  7  1  0
  7  8  2  0
  8  9  1  0
  9 10  2  0
 10 11  1  0
 11 12  2  0
  3 13  2  0
 13 14  1  0
 14 15  2  0
 15  1  1  0
 12  4  1  0
 12  7  1  0
M  END
>  <Compound_ID>  (573) 
CHEMBL4084955

>  <Molecule Name>  (573) 
nan

>  <Molecular Weight>  (573) 
195.22

>  <AlogP>  (573) 
2.62

>  <Smiles>  (573) 
c1cc(-c2c[nH]c3cnccc23)ccn1

>  <Standard Type>  (573) 
Inhibition

>  <Standard Relation>  (573) 
'='

>  <Standard Units>  (573) 
%

>  <Standard Value>  (573) 
-1.6

>  <Assay ChEMBL ID>  (573) 
CHEMBL4034500

>  <Assay Description>  (573) 
Inhibition of SYK activation loop (unknown origin) at 10 uM

>  <BAO Format ID>  (573) 
BAO_0000357

>  <BAO Label>  (573) 
single protein format

>  <Assay Organism>  (573) 
Homo sapiens

>  <Target ChEMBL ID>  (573) 
CHEMBL2599

>  <Target Name>  (573) 
Tyrosine-protein kinase SYK

>  <Target Organism>  (573) 
Homo sapiens

>  <Target Type>  (573) 
SINGLE PROTEIN

>  <Document ChEMBL ID>  (573) 
CHEMBL4033637

>  <Source Description>  (573) 
Scientific Literature

>  <Document Journal>  (573) 
Bioorg Med Chem Lett

>  <Document Year>  (573) 
2017.0

>  <Active>  (573) 
0.0

>  <bits>  (573) 
<rdkit.DataStructs.cDataStructs.ExplicitBitVect object at 0x00000193F33E9CB0>

>  <Group>  (573) 
G2

$$$$

     RDKit          2D

 24 25  0  0  0  0  0  0  0  0999 V2000
    3.0000    0.0000    0.0000 C   0  0  0  0  0  0  0  0  0  0  0  0
    1.5000    0.0000    0.0000 C   0  0  0  0  0  0  0  0  0  0  0  0
    0.7500   -1.2990    0.0000 C   0  0  0  0  0  0  0  0  0  0  0  0
   -0.7500   -1.2990    0.0000 C   0  0  0  0  0  0  0  0  0  0  0  0
   -1.5000   -2.5981    0.0000 O   0  0  0  0  0  0  0  0  0  0  0  0
   -1.5000    0.0000    0.0000 C   0  0  0  0  0  0  0  0  0  0  0  0
   -0.7500    1.2990    0.0000 C   0  0  0  0  0  0  0  0  0  0  0  0
   -1.5000    2.5981    0.0000 C   0  0  0  0  0  0  0  0  0  0  0  0
    0.7500    1.2990    0.0000 C   0  0  0  0  0  0  0  0  0  0  0  0
    1.5000    2.5981    0.0000 C   0  0  0  0  0  0  0  0  0  0  0  0
    3.0000    2.5981    0.0000 C   0  0  0  0  0  0  0  0  0  0  0  0
    3.7500    3.8971    0.0000 C   0  0  0  0  0  0  0  0  0  0  0  0
    5.2500    3.8971    0.0000 C   0  0  0  0  0  0  0  0  0  0  0  0
    6.0000    5.1962    0.0000 N   0  0  0  0  0  0  0  0  0  0  0  0
    5.2500    6.4952    0.0000 C   0  0  0  0  0  0  0  0  0  0  0  0
    3.7500    6.4952    0.0000 C   0  0  0  0  0  0  0  0  0  0  0  0
    3.0000    7.7942    0.0000 C   0  0  0  0  0  0  0  0  0  0  0  0
    1.5000    7.7942    0.0000 O   0  0  0  0  0  0  0  0  0  0  0  0
    3.7500    9.0933    0.0000 O   0  0  0  0  0  0  0  0  0  0  0  0
    3.0000   10.3923    0.0000 C   0  0  0  0  0  0  0  0  0  0  0  0
    4.2990   11.1423    0.0000 C   0  0  0  0  0  0  0  0  0  0  0  0
    1.7010    9.6423    0.0000 C   0  0  0  0  0  0  0  0  0  0  0  0
    2.2500   11.6913    0.0000 C   0  0  0  0  0  0  0  0  0  0  0  0
    3.0000    5.1962    0.0000 C   0  0  0  0  0  0  0  0  0  0  0  0
  1  2  1  0
  2  3  2  0
  3  4  1  0
  4  5  1  0
  4  6  2  0
  6  7  1  0
  7  8  1  0
  7  9  2  0
  9 10  1  0
 10 11  2  0
 11 12  1  0
 12 13  2  0
 13 14  1  0
 14 15  2  0
 15 16  1  0
 16 17  1  0
 17 18  2  0
 17 19  1  0
 19 20  1  0
 20 21  1  0
 20 22  1  0
 20 23  1  0
 16 24  2  0
  9  2  1  0
 24 12  1  0
M  END
>  <Compound_ID>  (574) 
CHEMBL374060

>  <Molecule Name>  (574) 
GW439255X

>  <Molecular Weight>  (574) 
325.41

>  <AlogP>  (574) 
4.53

>  <Smiles>  (574) 
Cc1cc(O)cc(C)c1/C=C/c1cncc(C(=O)OC(C)(C)C)c1

>  <Standard Type>  (574) 
Inhibition

>  <Standard Relation>  (574) 
'='

>  <Standard Units>  (574) 
%

>  <Standard Value>  (574) 
0.64

>  <Assay ChEMBL ID>  (574) 
CHEMBL1962175

>  <Assay Description>  (574) 
GSK_PKIS: SYK mean inhibition at 1 uM [Nanosyn]

>  <BAO Format ID>  (574) 
BAO_0000357

>  <BAO Label>  (574) 
single protein format

>  <Assay Organism>  (574) 
None

>  <Target ChEMBL ID>  (574) 
CHEMBL2599

>  <Target Name>  (574) 
Tyrosine-protein kinase SYK

>  <Target Organism>  (574) 
Homo sapiens

>  <Target Type>  (574) 
SINGLE PROTEIN

>  <Document ChEMBL ID>  (574) 
CHEMBL1961873

>  <Source Description>  (574) 
GSK Published Kinase Inhibitor Set

>  <Document Journal>  (574) 
nan

>  <Document Year>  (574) 
nan

>  <Active>  (574) 
0.0

>  <bits>  (574) 
<rdkit.DataStructs.cDataStructs.ExplicitBitVect object at 0x00000193F33EA810>

>  <Group>  (574) 
G2

$$$$

     RDKit          2D

 43 47  0  0  0  0  0  0  0  0999 V2000
    3.7500   -1.2990    0.0000 C   0  0  0  0  0  0  0  0  0  0  0  0
    3.0000    0.0000    0.0000 O   0  0  0  0  0  0  0  0  0  0  0  0
    1.5000    0.0000    0.0000 C   0  0  0  0  0  0  0  0  0  0  0  0
    0.7500   -1.2990    0.0000 C   0  0  0  0  0  0  0  0  0  0  0  0
   -0.7500   -1.2990    0.0000 C   0  0  0  0  0  0  0  0  0  0  0  0
   -1.5000   -2.5981    0.0000 N   0  0  0  0  0  0  0  0  0  0  0  0
   -3.0000   -2.5981    0.0000 C   0  0  0  0  0  0  0  0  0  0  0  0
   -3.7500   -1.2990    0.0000 O   0  0  0  0  0  0  0  0  0  0  0  0
   -3.7500   -3.8971    0.0000 N   0  0  0  0  0  0  0  0  0  0  0  0
   -5.2500   -3.8971    0.0000 C   0  0  0  0  0  0  0  0  0  0  0  0
   -6.0000   -2.5981    0.0000 C   0  0  0  0  0  0  0  0  0  0  0  0
   -7.5000   -2.5981    0.0000 N   0  0  0  0  0  0  0  0  0  0  0  0
   -8.2500   -3.8971    0.0000 C   0  0  0  0  0  0  0  0  0  0  0  0
   -9.7500   -3.8971    0.0000 N   0  0  0  0  0  0  0  0  0  0  0  0
  -10.5000   -2.5981    0.0000 C   0  0  0  0  0  0  0  0  0  0  0  0
   -9.7500   -1.2990    0.0000 C   0  0  0  0  0  0  0  0  0  0  0  0
  -10.5000    0.0000    0.0000 C   0  0  0  0  0  0  0  0  0  0  0  0
  -12.0000    0.0000    0.0000 C   0  0  0  0  0  0  0  0  0  0  0  0
  -12.7500    1.2990    0.0000 N   0  0  0  0  0  0  0  0  0  0  0  0
  -12.0000    2.5981    0.0000 C   0  0  0  0  0  0  0  0  0  0  0  0
  -12.7500    3.8971    0.0000 C   0  0  0  0  0  0  0  0  0  0  0  0
  -14.2500    3.8971    0.0000 O   0  0  0  0  0  0  0  0  0  0  0  0
  -15.0000    2.5981    0.0000 C   0  0  0  0  0  0  0  0  0  0  0  0
  -14.2500    1.2990    0.0000 C   0  0  0  0  0  0  0  0  0  0  0  0
  -12.7500   -1.2990    0.0000 C   0  0  0  0  0  0  0  0  0  0  0  0
  -12.0000   -2.5981    0.0000 C   0  0  0  0  0  0  0  0  0  0  0  0
   -7.5000   -5.1962    0.0000 N   0  0  0  0  0  0  0  0  0  0  0  0
   -6.0000   -5.1962    0.0000 C   0  0  0  0  0  0  0  0  0  0  0  0
   -5.2500   -6.4952    0.0000 O   0  0  0  0  0  0  0  0  0  0  0  0
   -6.0000   -7.7942    0.0000 C   0  0  0  0  0  0  0  0  0  0  0  0
   -7.5000   -7.7942    0.0000 C   0  0  0  0  0  0  0  0  0  0  0  0
   -8.2500   -9.0933    0.0000 C   0  0  0  0  0  0  0  0  0  0  0  0
   -7.5000  -10.3923    0.0000 C   0  0  0  0  0  0  0  0  0  0  0  0
   -8.2500  -11.6913    0.0000 C   0  0  0  0  0  0  0  0  0  0  0  0
   -6.0000  -10.3923    0.0000 C   0  0  0  0  0  0  0  0  0  0  0  0
   -5.2500   -9.0933    0.0000 C   0  0  0  0  0  0  0  0  0  0  0  0
   -3.7500   -9.0933    0.0000 O   0  0  0  0  0  0  0  0  0  0  0  0
   -3.0000  -10.3923    0.0000 C   0  0  0  0  0  0  0  0  0  0  0  0
   -1.5000    0.0000    0.0000 C   0  0  0  0  0  0  0  0  0  0  0  0
   -0.7500    1.2990    0.0000 C   0  0  0  0  0  0  0  0  0  0  0  0
   -1.5000    2.5981    0.0000 O   0  0  0  0  0  0  0  0  0  0  0  0
   -0.7500    3.8971    0.0000 C   0  0  0  0  0  0  0  0  0  0  0  0
    0.7500    1.2990    0.0000 C   0  0  0  0  0  0  0  0  0  0  0  0
  1  2  1  0
  2  3  1  0
  3  4  2  0
  4  5  1  0
  5  6  1  0
  6  7  1  0
  7  8  2  0
  7  9  1  0
  9 10  1  0
 10 11  2  0
 11 12  1  0
 12 13  2  0
 13 14  1  0
 14 15  1  0
 15 16  2  0
 16 17  1  0
 17 18  2  0
 18 19  1  0
 19 20  1  0
 20 21  1  0
 21 22  1  0
 22 23  1  0
 23 24  1  0
 18 25  1  0
 25 26  2  0
 13 27  1  0
 27 28  2  0
 28 29  1  0
 29 30  1  0
 30 31  2  0
 31 32  1  0
 32 33  2  0
 33 34  1  0
 33 35  1  0
 35 36  2  0
 36 37  1  0
 37 38  1  0
  5 39  2  0
 39 40  1  0
 40 41  1  0
 41 42  1  0
 40 43  2  0
 43  3  1  0
 28 10  1  0
 36 30  1  0
 26 15  1  0
 24 19  1  0
M  END
>  <Compound_ID>  (575) 
CHEMBL4159506

>  <Molecule Name>  (575) 
nan

>  <Molecular Weight>  (575) 
586.65

>  <AlogP>  (575) 
5.83

>  <Smiles>  (575) 
COc1cc(NC(=O)Nc2cnc(Nc3ccc(N4CCOCC4)cc3)nc2Oc2ccc(C)cc2OC)cc(OC)c1

>  <Standard Type>  (575) 
Inhibition

>  <Standard Relation>  (575) 
'='

>  <Standard Units>  (575) 
%

>  <Standard Value>  (575) 
8.93

>  <Assay ChEMBL ID>  (575) 
CHEMBL4145846

>  <Assay Description>  (575) 
Inhibition of SYK (unknown origin) at 10 uM relative to control

>  <BAO Format ID>  (575) 
BAO_0000357

>  <BAO Label>  (575) 
single protein format

>  <Assay Organism>  (575) 
Homo sapiens

>  <Target ChEMBL ID>  (575) 
CHEMBL2599

>  <Target Name>  (575) 
Tyrosine-protein kinase SYK

>  <Target Organism>  (575) 
Homo sapiens

>  <Target Type>  (575) 
SINGLE PROTEIN

>  <Document ChEMBL ID>  (575) 
CHEMBL4145442

>  <Source Description>  (575) 
Scientific Literature

>  <Document Journal>  (575) 
Eur J Med Chem

>  <Document Year>  (575) 
2017.0

>  <Active>  (575) 
0.0

>  <bits>  (575) 
<rdkit.DataStructs.cDataStructs.ExplicitBitVect object at 0x00000193F33E8190>

>  <Group>  (575) 
G2

$$$$

     RDKit          2D

 26 30  0  0  0  0  0  0  0  0999 V2000
    2.3907    1.0037    0.0000 C   0  0  0  0  0  0  0  0  0  0  0  0
    1.2760    0.0000    0.0000 C   0  0  0  0  0  0  0  0  0  0  0  0
    2.3907   -1.0037    0.0000 C   0  0  0  0  0  0  0  0  0  0  0  0
    0.3943    1.2135    0.0000 O   0  0  0  0  0  0  0  0  0  0  0  0
   -1.0323    0.7500    0.0000 C   0  0  0  0  0  0  0  0  0  0  0  0
   -1.0323   -0.7500    0.0000 C   0  0  0  0  0  0  0  0  0  0  0  0
   -2.1470   -1.7537    0.0000 C   0  0  0  0  0  0  0  0  0  0  0  0
   -3.5736   -1.2902    0.0000 N   0  0  0  0  0  0  0  0  0  0  0  0
   -4.6883   -2.2939    0.0000 C   0  0  0  0  0  0  0  0  0  0  0  0
   -4.5315   -3.7856    0.0000 N   0  0  0  0  0  0  0  0  0  0  0  0
   -5.9018   -4.3958    0.0000 N   0  0  0  0  0  0  0  0  0  0  0  0
   -6.9055   -3.2810    0.0000 C   0  0  0  0  0  0  0  0  0  0  0  0
   -8.4055   -3.2810    0.0000 C   0  0  0  0  0  0  0  0  0  0  0  0
   -9.1555   -1.9820    0.0000 C   0  0  0  0  0  0  0  0  0  0  0  0
   -8.4055   -0.6830    0.0000 C   0  0  0  0  0  0  0  0  0  0  0  0
   -6.9055   -0.6830    0.0000 C   0  0  0  0  0  0  0  0  0  0  0  0
   -6.1555   -1.9820    0.0000 C   0  0  0  0  0  0  0  0  0  0  0  0
   -1.8351   -3.2209    0.0000 N   0  0  0  0  0  0  0  0  0  0  0  0
   -0.4086   -3.6844    0.0000 C   0  0  0  0  0  0  0  0  0  0  0  0
   -0.0967   -5.1517    0.0000 C   0  0  0  0  0  0  0  0  0  0  0  0
    1.2736   -5.7618    0.0000 C   0  0  0  0  0  0  0  0  0  0  0  0
    1.1168   -7.2536    0.0000 N   0  0  0  0  0  0  0  0  0  0  0  0
   -0.3504   -7.5654    0.0000 N   0  0  0  0  0  0  0  0  0  0  0  0
   -1.1004   -6.2664    0.0000 C   0  0  0  0  0  0  0  0  0  0  0  0
    0.7062   -2.6807    0.0000 N   0  0  0  0  0  0  0  0  0  0  0  0
    0.3943   -1.2135    0.0000 C   0  0  0  0  0  0  0  0  0  0  0  0
  1  2  1  0
  2  3  1  0
  2  4  1  0
  4  5  1  0
  5  6  1  0
  6  7  2  0
  7  8  1  0
  8  9  1  0
  9 10  2  0
 10 11  1  0
 11 12  1  0
 12 13  2  0
 13 14  1  0
 14 15  2  0
 15 16  1  0
 16 17  2  0
  7 18  1  0
 18 19  2  0
 19 20  1  0
 20 21  1  0
 21 22  2  0
 22 23  1  0
 23 24  1  0
 19 25  1  0
 25 26  2  0
 26  2  1  0
 26  6  1  0
 17  9  1  0
 24 20  2  0
 17 12  1  0
M  END
>  <Compound_ID>  (576) 
CHEMBL3758502

>  <Molecule Name>  (576) 
nan

>  <Molecular Weight>  (576) 
347.38

>  <AlogP>  (576) 
3.25

>  <Smiles>  (576) 
CC1(C)OCc2c(Nc3n[nH]c4ccccc34)nc(-c3cn[nH]c3)nc21

>  <Standard Type>  (576) 
Inhibition

>  <Standard Relation>  (576) 
'='

>  <Standard Units>  (576) 
%

>  <Standard Value>  (576) 
0.4

>  <Assay ChEMBL ID>  (576) 
CHEMBL3761202

>  <Assay Description>  (576) 
Inhibition of SYK (unknown origin) at 100 nM

>  <BAO Format ID>  (576) 
BAO_0000357

>  <BAO Label>  (576) 
single protein format

>  <Assay Organism>  (576) 
Homo sapiens

>  <Target ChEMBL ID>  (576) 
CHEMBL2599

>  <Target Name>  (576) 
Tyrosine-protein kinase SYK

>  <Target Organism>  (576) 
Homo sapiens

>  <Target Type>  (576) 
SINGLE PROTEIN

>  <Document ChEMBL ID>  (576) 
CHEMBL3758169

>  <Source Description>  (576) 
Scientific Literature

>  <Document Journal>  (576) 
Bioorg Med Chem Lett

>  <Document Year>  (576) 
2016.0

>  <Active>  (576) 
0.0

>  <bits>  (576) 
<rdkit.DataStructs.cDataStructs.ExplicitBitVect object at 0x00000193F33EB140>

>  <Group>  (576) 
G2

$$$$

     RDKit          2D

 20 22  0  0  0  0  0  0  0  0999 V2000
   -2.9520   -4.6564    0.0000 C   0  0  0  0  0  0  0  0  0  0  0  0
   -2.6401   -3.1891    0.0000 C   0  0  0  0  0  0  0  0  0  0  0  0
   -3.7548   -2.1855    0.0000 C   0  0  0  0  0  0  0  0  0  0  0  0
   -1.2135   -2.7256    0.0000 N   0  0  0  0  0  0  0  0  0  0  0  0
   -0.0000   -3.6073    0.0000 N   0  0  0  0  0  0  0  0  0  0  0  0
    1.2135   -2.7256    0.0000 C   0  0  0  0  0  0  0  0  0  0  0  0
    2.6401   -3.1891    0.0000 C   0  0  0  0  0  0  0  0  0  0  0  0
    2.9520   -4.6564    0.0000 C   0  0  0  0  0  0  0  0  0  0  0  0
    4.3786   -5.1199    0.0000 C   0  0  0  0  0  0  0  0  0  0  0  0
    5.4933   -4.1162    0.0000 C   0  0  0  0  0  0  0  0  0  0  0  0
    5.1814   -2.6490    0.0000 C   0  0  0  0  0  0  0  0  0  0  0  0
    6.2961   -1.6453    0.0000 O   0  0  0  0  0  0  0  0  0  0  0  0
    3.7548   -2.1855    0.0000 C   0  0  0  0  0  0  0  0  0  0  0  0
    0.7500   -1.2990    0.0000 C   0  0  0  0  0  0  0  0  0  0  0  0
    1.5000    0.0000    0.0000 C   0  0  0  0  0  0  0  0  0  0  0  0
    3.0000    0.0000    0.0000 N   0  0  0  0  0  0  0  0  0  0  0  0
    0.7500    1.2990    0.0000 N   0  0  0  0  0  0  0  0  0  0  0  0
   -0.7500    1.2990    0.0000 C   0  0  0  0  0  0  0  0  0  0  0  0
   -1.5000    0.0000    0.0000 N   0  0  0  0  0  0  0  0  0  0  0  0
   -0.7500   -1.2990    0.0000 C   0  0  0  0  0  0  0  0  0  0  0  0
  1  2  1  0
  2  3  1  0
  2  4  1  0
  4  5  1  0
  5  6  2  0
  6  7  1  0
  7  8  2  0
  8  9  1  0
  9 10  2  0
 10 11  1  0
 11 12  1  0
 11 13  2  0
  6 14  1  0
 14 15  2  0
 15 16  1  0
 15 17  1  0
 17 18  2  0
 18 19  1  0
 19 20  2  0
 20  4  1  0
 13  7  1  0
 20 14  1  0
M  END
>  <Compound_ID>  (577) 
CHEMBL1230790

>  <Molecule Name>  (577) 
nan

>  <Molecular Weight>  (577) 
269.31

>  <AlogP>  (577) 
2.36

>  <Smiles>  (577) 
CC(C)n1nc(-c2cccc(O)c2)c2c(N)ncnc21

>  <Standard Type>  (577) 
Inhibition

>  <Standard Relation>  (577) 
'='

>  <Standard Units>  (577) 
%

>  <Standard Value>  (577) 
17.0

>  <Assay ChEMBL ID>  (577) 
CHEMBL1244304

>  <Assay Description>  (577) 
Inhibition of SYK at 1 uM after 60 mins by FRET assay in presence of 10 uM ATP

>  <BAO Format ID>  (577) 
BAO_0000357

>  <BAO Label>  (577) 
single protein format

>  <Assay Organism>  (577) 
None

>  <Target ChEMBL ID>  (577) 
CHEMBL2599

>  <Target Name>  (577) 
Tyrosine-protein kinase SYK

>  <Target Organism>  (577) 
Homo sapiens

>  <Target Type>  (577) 
SINGLE PROTEIN

>  <Document ChEMBL ID>  (577) 
CHEMBL1240340

>  <Source Description>  (577) 
Scientific Literature

>  <Document Journal>  (577) 
Nat Chem Biol

>  <Document Year>  (577) 
2008.0

>  <Active>  (577) 
0.0

>  <bits>  (577) 
<rdkit.DataStructs.cDataStructs.ExplicitBitVect object at 0x00000193F33EBF40>

>  <Group>  (577) 
G2

$$$$

     RDKit          2D

 16 17  0  0  0  0  0  0  0  0999 V2000
    3.7500   -1.2990    0.0000 C   0  0  0  0  0  0  0  0  0  0  0  0
    3.0000    0.0000    0.0000 C   0  0  0  0  0  0  0  0  0  0  0  0
    3.7500    1.2990    0.0000 C   0  0  0  0  0  0  0  0  0  0  0  0
    1.5000    0.0000    0.0000 C   0  0  0  0  0  0  0  0  0  0  0  0
    0.7500   -1.2990    0.0000 C   0  0  0  0  0  0  0  0  0  0  0  0
   -0.7500   -1.2990    0.0000 C   0  0  0  0  0  0  0  0  0  0  0  0
   -1.5000   -2.5981    0.0000 N   0  0  0  0  0  0  0  0  0  0  0  0
   -0.8899   -3.9684    0.0000 C   0  0  0  0  0  0  0  0  0  0  0  0
   -2.0046   -4.9721    0.0000 C   0  0  0  0  0  0  0  0  0  0  0  0
   -3.3037   -4.2221    0.0000 C   0  0  0  0  0  0  0  0  0  0  0  0
   -4.6740   -4.8322    0.0000 N   0  0  0  0  0  0  0  0  0  0  0  0
   -2.9918   -2.7549    0.0000 C   0  0  0  0  0  0  0  0  0  0  0  0
   -1.5000    0.0000    0.0000 N   0  0  0  0  0  0  0  0  0  0  0  0
   -0.7500    1.2990    0.0000 C   0  0  0  0  0  0  0  0  0  0  0  0
   -1.5000    2.5981    0.0000 N   0  0  0  0  0  0  0  0  0  0  0  0
    0.7500    1.2990    0.0000 N   0  0  0  0  0  0  0  0  0  0  0  0
  1  2  1  0
  2  3  1  0
  2  4  1  0
  4  5  2  0
  5  6  1  0
  6  7  1  0
  7  8  1  0
  8  9  1  0
  9 10  1  0
 10 11  1  1
 10 12  1  0
  6 13  2  0
 13 14  1  0
 14 15  1  0
 14 16  2  0
 16  4  1  0
 12  7  1  0
M  END
>  <Compound_ID>  (578) 
CHEMBL3236549

>  <Molecule Name>  (578) 
JNJ-39758979

>  <Molecular Weight>  (578) 
221.31

>  <AlogP>  (578) 
0.72

>  <Smiles>  (578) 
CC(C)c1cc(N2CC[C@@H](N)C2)nc(N)n1

>  <Standard Type>  (578) 
Inhibition

>  <Standard Relation>  (578) 
'='

>  <Standard Units>  (578) 
%

>  <Standard Value>  (578) 
3.0

>  <Assay ChEMBL ID>  (578) 
CHEMBL5058954

>  <Assay Description>  (578) 
Syk(h) Millipore kinase panel

>  <BAO Format ID>  (578) 
BAO_0000357

>  <BAO Label>  (578) 
single protein format

>  <Assay Organism>  (578) 
Homo sapiens

>  <Target ChEMBL ID>  (578) 
CHEMBL2599

>  <Target Name>  (578) 
Tyrosine-protein kinase SYK

>  <Target Organism>  (578) 
Homo sapiens

>  <Target Type>  (578) 
SINGLE PROTEIN

>  <Document ChEMBL ID>  (578) 
CHEMBL5058644

>  <Source Description>  (578) 
Donated Chemical Probes - SGC Frankfurt

>  <Document Journal>  (578) 
nan

>  <Document Year>  (578) 
2022.0

>  <Active>  (578) 
0.0

>  <bits>  (578) 
<rdkit.DataStructs.cDataStructs.ExplicitBitVect object at 0x00000193F33E8350>

>  <Group>  (578) 
G2

$$$$

     RDKit          2D

 23 25  0  0  0  0  0  0  0  0999 V2000
   -8.2500   -1.2990    0.0000 C   0  0  0  0  0  0  0  0  0  0  0  0
   -9.0000   -2.5981    0.0000 C   0  0  0  0  0  0  0  0  0  0  0  0
   -8.2500   -3.8971    0.0000 S   0  0  0  0  0  0  0  0  0  0  0  0
   -6.9510   -3.1471    0.0000 O   0  0  0  0  0  0  0  0  0  0  0  0
   -9.5490   -4.6471    0.0000 O   0  0  0  0  0  0  0  0  0  0  0  0
   -7.5000   -5.1962    0.0000 N   0  0  0  0  0  0  0  0  0  0  0  0
   -6.0000   -5.1962    0.0000 C   0  0  0  0  0  0  0  0  0  0  0  0
   -5.2500   -3.8971    0.0000 C   0  0  0  0  0  0  0  0  0  0  0  0
   -3.7500   -3.8971    0.0000 C   0  0  0  0  0  0  0  0  0  0  0  0
   -3.0000   -5.1962    0.0000 C   0  0  0  0  0  0  0  0  0  0  0  0
   -1.5000   -5.1962    0.0000 C   0  0  0  0  0  0  0  0  0  0  0  0
   -0.7500   -3.8971    0.0000 C   0  0  0  0  0  0  0  0  0  0  0  0
    0.7500   -3.8971    0.0000 C   0  0  0  0  0  0  0  0  0  0  0  0
    1.5000   -2.5981    0.0000 C   0  0  0  0  0  0  0  0  0  0  0  0
    0.7500   -1.2990    0.0000 C   0  0  0  0  0  0  0  0  0  0  0  0
    1.5000    0.0000    0.0000 C   0  0  0  0  0  0  0  0  0  0  0  0
    0.7500    1.2990    0.0000 C   0  0  0  0  0  0  0  0  0  0  0  0
   -0.7500    1.2990    0.0000 C   0  0  0  0  0  0  0  0  0  0  0  0
   -1.5000    0.0000    0.0000 C   0  0  0  0  0  0  0  0  0  0  0  0
   -0.7500   -1.2990    0.0000 C   0  0  0  0  0  0  0  0  0  0  0  0
   -1.5000   -2.5981    0.0000 C   0  0  0  0  0  0  0  0  0  0  0  0
   -3.7500   -6.4952    0.0000 C   0  0  0  0  0  0  0  0  0  0  0  0
   -5.2500   -6.4952    0.0000 C   0  0  0  0  0  0  0  0  0  0  0  0
  1  2  2  0
  2  3  1  0
  3  4  2  0
  3  5  2  0
  3  6  1  0
  6  7  1  0
  7  8  2  0
  8  9  1  0
  9 10  2  0
 10 11  1  0
 11 12  1  0
 12 13  2  0
 13 14  1  0
 14 15  2  0
 15 16  1  0
 16 17  2  0
 17 18  1  0
 18 19  2  0
 19 20  1  0
 20 21  2  0
 10 22  1  0
 22 23  2  0
 23  7  1  0
 21 12  1  0
 20 15  1  0
M  END
>  <Compound_ID>  (579) 
CHEMBL4459587

>  <Molecule Name>  (579) 
nan

>  <Molecular Weight>  (579) 
323.42

>  <AlogP>  (579) 
4.32

>  <Smiles>  (579) 
C=CS(=O)(=O)Nc1ccc(Cc2ccc3ccccc3c2)cc1

>  <Standard Type>  (579) 
Inhibition

>  <Standard Relation>  (579) 
'='

>  <Standard Units>  (579) 
%

>  <Standard Value>  (579) 
-4.0

>  <Assay ChEMBL ID>  (579) 
CHEMBL4378815

>  <Assay Description>  (579) 
Inhibition of full length recombinant human Syk at 10 uM using poly(Glu, Tyr) 4:1 as substrate after 40 mins in presence of [gamma33P]ATP by scintillation counting method relative to control

>  <BAO Format ID>  (579) 
BAO_0000357

>  <BAO Label>  (579) 
single protein format

>  <Assay Organism>  (579) 
Homo sapiens

>  <Target ChEMBL ID>  (579) 
CHEMBL2599

>  <Target Name>  (579) 
Tyrosine-protein kinase SYK

>  <Target Organism>  (579) 
Homo sapiens

>  <Target Type>  (579) 
SINGLE PROTEIN

>  <Document ChEMBL ID>  (579) 
CHEMBL4376829

>  <Source Description>  (579) 
Scientific Literature

>  <Document Journal>  (579) 
Eur J Med Chem

>  <Document Year>  (579) 
2019.0

>  <Active>  (579) 
0.0

>  <bits>  (579) 
<rdkit.DataStructs.cDataStructs.ExplicitBitVect object at 0x00000193F33E9930>

>  <Group>  (579) 
G2

$$$$

     RDKit          2D

 27 30  0  0  0  0  0  0  0  0999 V2000
   -2.0882   -8.4404    0.0000 C   0  0  0  0  0  0  0  0  0  0  0  0
   -2.6983   -7.0701    0.0000 C   0  0  0  0  0  0  0  0  0  0  0  0
   -1.9483   -5.7711    0.0000 N   0  0  0  0  0  0  0  0  0  0  0  0
   -2.9520   -4.6564    0.0000 C   0  0  0  0  0  0  0  0  0  0  0  0
   -2.6401   -3.1891    0.0000 C   0  0  0  0  0  0  0  0  0  0  0  0
   -1.2135   -2.7256    0.0000 C   0  0  0  0  0  0  0  0  0  0  0  0
   -0.0000   -3.6073    0.0000 C   0  0  0  0  0  0  0  0  0  0  0  0
    0.0000   -5.1073    0.0000 O   0  0  0  0  0  0  0  0  0  0  0  0
    1.2135   -2.7256    0.0000 N   0  0  0  0  0  0  0  0  0  0  0  0
    0.7500   -1.2990    0.0000 C   0  0  0  0  0  0  0  0  0  0  0  0
    1.5000    0.0000    0.0000 C   0  0  0  0  0  0  0  0  0  0  0  0
    0.7500    1.2990    0.0000 C   0  0  0  0  0  0  0  0  0  0  0  0
   -0.7500    1.2990    0.0000 C   0  0  0  0  0  0  0  0  0  0  0  0
   -1.5000    2.5981    0.0000 F   0  0  0  0  0  0  0  0  0  0  0  0
   -1.5000    0.0000    0.0000 C   0  0  0  0  0  0  0  0  0  0  0  0
   -0.7500   -1.2990    0.0000 C   0  0  0  0  0  0  0  0  0  0  0  0
   -4.3223   -5.2665    0.0000 C   0  0  0  0  0  0  0  0  0  0  0  0
   -5.6213   -4.5165    0.0000 C   0  0  0  0  0  0  0  0  0  0  0  0
   -4.1655   -6.7583    0.0000 C   0  0  0  0  0  0  0  0  0  0  0  0
   -5.2802   -7.7620    0.0000 N   0  0  0  0  0  0  0  0  0  0  0  0
   -6.7068   -7.2984    0.0000 C   0  0  0  0  0  0  0  0  0  0  0  0
   -7.0187   -5.8312    0.0000 O   0  0  0  0  0  0  0  0  0  0  0  0
   -7.8215   -8.3021    0.0000 C   0  0  0  0  0  0  0  0  0  0  0  0
   -7.6647   -9.7939    0.0000 C   0  0  0  0  0  0  0  0  0  0  0  0
   -9.0350  -10.4040    0.0000 C   0  0  0  0  0  0  0  0  0  0  0  0
  -10.0387   -9.2893    0.0000 C   0  0  0  0  0  0  0  0  0  0  0  0
   -9.2887   -7.9903    0.0000 N   0  0  0  0  0  0  0  0  0  0  0  0
  1  2  1  0
  2  3  1  0
  3  4  1  0
  4  5  1  0
  5  6  2  0
  6  7  1  0
  7  8  2  0
  7  9  1  0
  9 10  1  0
 10 11  2  0
 11 12  1  0
 12 13  2  0
 13 14  1  0
 13 15  1  0
 15 16  2  0
  4 17  2  0
 17 18  1  0
 17 19  1  0
 19 20  1  0
 20 21  1  0
 21 22  2  0
 23 21  1  1
 23 24  1  0
 24 25  1  0
 25 26  1  0
 26 27  1  0
 19  2  2  0
 27 23  1  0
 16  6  1  0
 16 10  1  0
M  END
>  <Compound_ID>  (580) 
CHEMBL4093614

>  <Molecule Name>  (580) 
nan

>  <Molecular Weight>  (580) 
404.87

>  <AlogP>  (580) 
2.95

>  <Smiles>  (580) 
Cc1[nH]c(/C=C2\C(=O)Nc3ccc(F)cc32)c(C)c1NC(=O)[C@H]1CCCN1

>  <Standard Type>  (580) 
Inhibition

>  <Standard Relation>  (580) 
'='

>  <Standard Units>  (580) 
%

>  <Standard Value>  (580) 
-3.0

>  <Assay ChEMBL ID>  (580) 
CHEMBL4007935

>  <Assay Description>  (580) 
Inhibition of human SYK at 0.1 uM relative to control

>  <BAO Format ID>  (580) 
BAO_0000357

>  <BAO Label>  (580) 
single protein format

>  <Assay Organism>  (580) 
Homo sapiens

>  <Target ChEMBL ID>  (580) 
CHEMBL2599

>  <Target Name>  (580) 
Tyrosine-protein kinase SYK

>  <Target Organism>  (580) 
Homo sapiens

>  <Target Type>  (580) 
SINGLE PROTEIN

>  <Document ChEMBL ID>  (580) 
CHEMBL4007390

>  <Source Description>  (580) 
Scientific Literature

>  <Document Journal>  (580) 
Eur J Med Chem

>  <Document Year>  (580) 
2017.0

>  <Active>  (580) 
0.0

>  <bits>  (580) 
<rdkit.DataStructs.cDataStructs.ExplicitBitVect object at 0x00000193F33E8C10>

>  <Group>  (580) 
G2

$$$$

     RDKit          2D

 33 37  0  0  0  0  0  0  0  0999 V2000
    1.6849    2.1132    0.0000 H   0  0  0  0  0  0  0  0  0  0  0  0
    2.6491    0.9642    0.0000 C   0  0  0  0  0  0  0  0  0  0  0  0
    3.2321    0.4205    0.0000 H   0  0  0  0  0  0  0  0  0  0  0  0
    3.7981    1.9284    0.0000 H   0  0  0  0  0  0  0  0  0  0  0  0
    1.5000    0.0000    0.0000 C   0  0  0  0  0  0  0  0  0  0  0  0
    2.6491   -0.9642    0.0000 C   0  0  0  0  0  0  0  0  0  0  0  0
    3.2321   -0.4205    0.0000 H   0  0  0  0  0  0  0  0  0  0  0  0
    1.6849   -2.1132    0.0000 H   0  0  0  0  0  0  0  0  0  0  0  0
    3.7981   -1.9284    0.0000 H   0  0  0  0  0  0  0  0  0  0  0  0
    0.7500   -1.2990    0.0000 C   0  0  0  0  0  0  0  0  0  0  0  0
   -0.7500   -1.2990    0.0000 N   0  0  0  0  0  0  0  0  0  0  0  0
   -1.7537   -2.4138    0.0000 N   0  0  0  0  0  0  0  0  0  0  0  0
   -3.1240   -1.8037    0.0000 C   0  0  0  0  0  0  0  0  0  0  0  0
   -4.4231   -2.5537    0.0000 C   0  0  0  0  0  0  0  0  0  0  0  0
   -5.7221   -1.8037    0.0000 C   0  0  0  0  0  0  0  0  0  0  0  0
   -7.0211   -2.5537    0.0000 C   0  0  0  0  0  0  0  0  0  0  0  0
   -7.0211   -4.0537    0.0000 C   0  0  0  0  0  0  0  0  0  0  0  0
   -8.3202   -4.8037    0.0000 F   0  0  0  0  0  0  0  0  0  0  0  0
   -5.7221   -4.8037    0.0000 C   0  0  0  0  0  0  0  0  0  0  0  0
   -4.4231   -4.0537    0.0000 N   0  0  0  0  0  0  0  0  0  0  0  0
   -2.9672   -0.3119    0.0000 C   0  0  0  0  0  0  0  0  0  0  0  0
   -4.0819    0.6918    0.0000 C   0  0  0  0  0  0  0  0  0  0  0  0
   -3.7701    2.1590    0.0000 C   0  0  0  0  0  0  0  0  0  0  0  0
   -4.8848    3.1627    0.0000 C   0  0  0  0  0  0  0  0  0  0  0  0
   -6.3114    2.6992    0.0000 N   0  0  0  0  0  0  0  0  0  0  0  0
   -6.6232    1.2320    0.0000 C   0  0  0  0  0  0  0  0  0  0  0  0
   -7.9223    0.4820    0.0000 N   0  0  0  0  0  0  0  0  0  0  0  0
   -7.6104   -0.9852    0.0000 N   0  0  0  0  0  0  0  0  0  0  0  0
   -6.1186   -1.1420    0.0000 C   0  0  0  0  0  0  0  0  0  0  0  0
   -5.5085    0.2283    0.0000 C   0  0  0  0  0  0  0  0  0  0  0  0
   -1.5000    0.0000    0.0000 C   0  0  0  0  0  0  0  0  0  0  0  0
   -0.7500    1.2990    0.0000 C   0  0  0  0  0  0  0  0  0  0  0  0
    0.7500    1.2990    0.0000 O   0  0  0  0  0  0  0  0  0  0  0  0
  1  2  1  0
  2  3  1  0
  2  4  1  0
  2  5  1  0
  5  6  1  0
  6  7  1  0
  6  8  1  0
  6  9  1  0
  5 10  1  0
 10 11  1  0
 11 12  1  0
 12 13  2  0
 13 14  1  0
 14 15  2  0
 15 16  1  0
 16 17  2  0
 17 18  1  0
 17 19  1  0
 19 20  2  0
 13 21  1  0
 21 22  1  0
 22 23  2  0
 23 24  1  0
 24 25  2  0
 25 26  1  0
 26 27  1  0
 27 28  1  0
 28 29  2  0
 29 30  1  0
 21 31  2  0
 31 32  1  0
 32 33  1  0
 33  5  1  0
 31 11  1  0
 20 14  1  0
 30 22  1  0
 30 26  2  0
M  ISO  6   1   2   3   2   4   2   7   2   8   2   9   2
M  END
>  <Compound_ID>  (581) 
CHEMBL5081774

>  <Molecule Name>  (581) 
nan

>  <Molecular Weight>  (581) 
370.42

>  <AlogP>  (581) 
3.33

>  <Smiles>  (581) 
[2H]C([2H])([2H])C1(C([2H])([2H])[2H])Cn2nc(-c3ccc(F)cn3)c(-c3ccnc4[nH]ncc34)c2CO1

>  <Standard Type>  (581) 
Inhibition

>  <Standard Relation>  (581) 
'='

>  <Standard Units>  (581) 
%

>  <Standard Value>  (581) 
-8.0

>  <Assay ChEMBL ID>  (581) 
CHEMBL5059331

>  <Assay Description>  (581) 
Syk(h) Kinase panel

>  <BAO Format ID>  (581) 
BAO_0000357

>  <BAO Label>  (581) 
single protein format

>  <Assay Organism>  (581) 
Homo sapiens

>  <Target ChEMBL ID>  (581) 
CHEMBL2599

>  <Target Name>  (581) 
Tyrosine-protein kinase SYK

>  <Target Organism>  (581) 
Homo sapiens

>  <Target Type>  (581) 
SINGLE PROTEIN

>  <Document ChEMBL ID>  (581) 
CHEMBL5058645

>  <Source Description>  (581) 
Donated Chemical Probes - SGC Frankfurt

>  <Document Journal>  (581) 
nan

>  <Document Year>  (581) 
2022.0

>  <Active>  (581) 
0.0

>  <bits>  (581) 
<rdkit.DataStructs.cDataStructs.ExplicitBitVect object at 0x00000193F33EB530>

>  <Group>  (581) 
G2

$$$$

     RDKit          2D

 33 36  0  0  0  0  0  0  0  0999 V2000
   -1.3977  -15.4934    0.0000 O   0  0  0  0  0  0  0  0  0  0  0  0
   -2.7680  -14.8833    0.0000 C   0  0  0  0  0  0  0  0  0  0  0  0
   -2.9248  -13.3915    0.0000 C   0  0  0  0  0  0  0  0  0  0  0  0
   -1.7113  -12.5098    0.0000 C   0  0  0  0  0  0  0  0  0  0  0  0
   -1.8681  -11.0180    0.0000 C   0  0  0  0  0  0  0  0  0  0  0  0
   -0.6546  -10.1364    0.0000 C   0  0  0  0  0  0  0  0  0  0  0  0
   -0.8113   -8.6446    0.0000 C   0  0  0  0  0  0  0  0  0  0  0  0
    0.4022   -7.7629    0.0000 C   0  0  0  0  0  0  0  0  0  0  0  0
    0.2454   -6.2711    0.0000 N   0  0  0  0  0  0  0  0  0  0  0  0
    1.3601   -5.2674    0.0000 C   0  0  0  0  0  0  0  0  0  0  0  0
    0.7500   -3.8971    0.0000 C   0  0  0  0  0  0  0  0  0  0  0  0
    1.5000   -2.5981    0.0000 N   0  0  0  0  0  0  0  0  0  0  0  0
    0.7500   -1.2990    0.0000 C   0  0  0  0  0  0  0  0  0  0  0  0
    1.5000    0.0000    0.0000 N   0  0  0  0  0  0  0  0  0  0  0  0
    0.7500    1.2990    0.0000 C   0  0  0  0  0  0  0  0  0  0  0  0
   -0.7500    1.2990    0.0000 C   0  0  0  0  0  0  0  0  0  0  0  0
   -1.7537    2.4138    0.0000 C   0  0  0  0  0  0  0  0  0  0  0  0
   -3.1240    1.8037    0.0000 C   0  0  0  0  0  0  0  0  0  0  0  0
   -2.9672    0.3119    0.0000 N   0  0  0  0  0  0  0  0  0  0  0  0
   -4.0819   -0.6918    0.0000 C   0  0  0  0  0  0  0  0  0  0  0  0
   -5.5085   -0.2283    0.0000 C   0  0  0  0  0  0  0  0  0  0  0  0
   -5.8204    1.2389    0.0000 C   0  0  0  0  0  0  0  0  0  0  0  0
   -7.2470    1.7024    0.0000 C   0  0  0  0  0  0  0  0  0  0  0  0
   -8.3617    0.6987    0.0000 C   0  0  0  0  0  0  0  0  0  0  0  0
   -8.0498   -0.7685    0.0000 C   0  0  0  0  0  0  0  0  0  0  0  0
   -6.6232   -1.2320    0.0000 C   0  0  0  0  0  0  0  0  0  0  0  0
   -6.3114   -2.6992    0.0000 F   0  0  0  0  0  0  0  0  0  0  0  0
   -1.5000    0.0000    0.0000 C   0  0  0  0  0  0  0  0  0  0  0  0
   -0.7500   -1.2990    0.0000 N   0  0  0  0  0  0  0  0  0  0  0  0
   -0.7418   -4.0539    0.0000 C   0  0  0  0  0  0  0  0  0  0  0  0
   -1.0537   -5.5211    0.0000 N   0  0  0  0  0  0  0  0  0  0  0  0
   -3.9815  -15.7650    0.0000 N   0  0  0  0  0  0  0  0  0  0  0  0
   -3.8248  -17.2568    0.0000 O   0  0  0  0  0  0  0  0  0  0  0  0
  1  2  2  0
  2  3  1  0
  3  4  1  0
  4  5  1  0
  5  6  1  0
  6  7  1  0
  7  8  1  0
  8  9  1  0
  9 10  1  0
 10 11  2  0
 11 12  1  0
 12 13  1  0
 13 14  2  0
 14 15  1  0
 15 16  2  0
 16 17  1  0
 17 18  2  0
 18 19  1  0
 19 20  1  0
 20 21  1  0
 21 22  2  0
 22 23  1  0
 23 24  2  0
 24 25  1  0
 25 26  2  0
 26 27  1  0
 19 28  1  0
 28 29  2  0
 11 30  1  0
 30 31  2  0
  2 32  1  0
 32 33  1  0
 31  9  1  0
 29 13  1  0
 28 16  1  0
 26 21  1  0
M  END
>  <Compound_ID>  (582) 
CHEMBL5076728

>  <Molecule Name>  (582) 
nan

>  <Molecular Weight>  (582) 
451.51

>  <AlogP>  (582) 
4.01

>  <Smiles>  (582) 
O=C(CCCCCCn1cc(Nc2ncc3ccn(Cc4ccccc4F)c3n2)cn1)NO

>  <Standard Type>  (582) 
Inhibition

>  <Standard Relation>  (582) 
'='

>  <Standard Units>  (582) 
%

>  <Standard Value>  (582) 
0.0

>  <Assay ChEMBL ID>  (582) 
CHEMBL5038975

>  <Assay Description>  (582) 
Inhibition of human recombinant Syk assessed as reduction in substrate phosphorylation at 50 to 500 nM using ATP and Ulight-CKKSRGDYMTMQIG (IRS-1) incubated for 60 min by LANCE detection method

>  <BAO Format ID>  (582) 
BAO_0000357

>  <BAO Label>  (582) 
single protein format

>  <Assay Organism>  (582) 
Homo sapiens

>  <Target ChEMBL ID>  (582) 
CHEMBL2599

>  <Target Name>  (582) 
Tyrosine-protein kinase SYK

>  <Target Organism>  (582) 
Homo sapiens

>  <Target Type>  (582) 
SINGLE PROTEIN

>  <Document ChEMBL ID>  (582) 
CHEMBL5038570

>  <Source Description>  (582) 
Scientific Literature

>  <Document Journal>  (582) 
J Med Chem

>  <Document Year>  (582) 
2022.0

>  <Active>  (582) 
0.0

>  <bits>  (582) 
<rdkit.DataStructs.cDataStructs.ExplicitBitVect object at 0x00000193F33EB060>

>  <Group>  (582) 
G2

$$$$
