
     RDKit          2D

 27 30  0  0  0  0  0  0  0  0999 V2000
   -7.8175    0.9250    0.0000 N   0  0  0  0  0  0  0  0  0  0  0  0
   -6.4268    0.3631    0.0000 C   0  0  0  0  0  0  0  0  0  0  0  0
   -7.2216   -0.9090    0.0000 C   0  0  0  0  0  0  0  0  0  0  0  0
   -6.5174   -2.2334    0.0000 O   0  0  0  0  0  0  0  0  0  0  0  0
   -8.7207   -0.8566    0.0000 N   0  0  0  0  0  0  0  0  0  0  0  0
   -9.5156   -2.1287    0.0000 C   0  0  0  0  0  0  0  0  0  0  0  0
  -11.0147   -2.0763    0.0000 C   0  0  0  0  0  0  0  0  0  0  0  0
  -11.7189   -0.7519    0.0000 C   0  0  0  0  0  0  0  0  0  0  0  0
  -13.2180   -0.6996    0.0000 C   0  0  0  0  0  0  0  0  0  0  0  0
  -14.0129   -1.9716    0.0000 C   0  0  0  0  0  0  0  0  0  0  0  0
  -15.5119   -1.9193    0.0000 Cl  0  0  0  0  0  0  0  0  0  0  0  0
  -13.3087   -3.2960    0.0000 C   0  0  0  0  0  0  0  0  0  0  0  0
  -11.8096   -3.3484    0.0000 C   0  0  0  0  0  0  0  0  0  0  0  0
   -5.3120   -0.6406    0.0000 C   0  0  0  0  0  0  0  0  0  0  0  0
   -3.8855   -0.1771    0.0000 C   0  0  0  0  0  0  0  0  0  0  0  0
   -3.5736    1.2902    0.0000 N   0  0  0  0  0  0  0  0  0  0  0  0
   -2.1470    1.7537    0.0000 C   0  0  0  0  0  0  0  0  0  0  0  0
   -1.8351    3.2209    0.0000 N   0  0  0  0  0  0  0  0  0  0  0  0
   -0.4086    3.6844    0.0000 C   0  0  0  0  0  0  0  0  0  0  0  0
    0.7062    2.6807    0.0000 N   0  0  0  0  0  0  0  0  0  0  0  0
    0.3943    1.2135    0.0000 C   0  0  0  0  0  0  0  0  0  0  0  0
    1.2760    0.0000    0.0000 N   0  0  0  0  0  0  0  0  0  0  0  0
    0.3943   -1.2135    0.0000 C   0  0  0  0  0  0  0  0  0  0  0  0
   -1.0323   -0.7500    0.0000 C   0  0  0  0  0  0  0  0  0  0  0  0
   -1.0323    0.7500    0.0000 C   0  0  0  0  0  0  0  0  0  0  0  0
   -4.6883    2.2939    0.0000 C   0  0  0  0  0  0  0  0  0  0  0  0
   -6.1149    1.8303    0.0000 C   0  0  0  0  0  0  0  0  0  0  0  0
  1  2  1  0
  2  3  1  0
  3  4  2  0
  3  5  1  0
  5  6  1  0
  6  7  1  0
  7  8  2  0
  8  9  1  0
  9 10  2  0
 10 11  1  0
 10 12  1  0
 12 13  2  0
  2 14  1  0
 14 15  1  0
 15 16  1  0
 16 17  1  0
 17 18  2  0
 18 19  1  0
 19 20  2  0
 20 21  1  0
 21 22  1  0
 22 23  1  0
 23 24  2  0
 24 25  1  0
 16 26  1  0
 26 27  1  0
 27  2  1  0
 13  7  1  0
 25 17  1  0
 25 21  2  0
M  END
>  <Compound_ID>  (1) 
CHEMBL598194

>  <Active>  (1) 
1

>  <Smiles>  (1) 
NC1(C(=O)NCc2ccc(Cl)cc2)CCN(c2ncnc3[nH]ccc23)CC1

>  <canonical_smi>  (1) 
NC1(C(=O)NCc2ccc(Cl)cc2)CCN(c2ncnc3[nH]ccc23)CC1

>  <Set>  (1) 
G1 active

>  <Set_type>  (1) 
G1

>  <MW>  (1) 
384.87

>  <HBD>  (1) 
3

>  <HBA>  (1) 
5

>  <NRB>  (1) 
4

>  <NR>  (1) 
4

>  <NAR>  (1) 
3

>  <PSA>  (1) 
99.93

>  <Standard Type>  (1) 
nan

>  <Standard Relation>  (1) 
nan

>  <Standard Units>  (1) 
nan

>  <Standard Value>  (1) 
nan

>  <Assay ChEMBL ID>  (1) 
nan

>  <Assay Description>  (1) 
nan

>  <BAO Label>  (1) 
nan

$$$$

     RDKit          2D

 44 51  0  0  0  0  0  0  0  0999 V2000
    2.7760    0.0000    0.0000 N   0  0  0  0  0  0  0  0  0  0  0  0
    1.2760    0.0000    0.0000 C   0  0  0  0  0  0  0  0  0  0  0  0
    0.3943    1.2135    0.0000 N   0  0  0  0  0  0  0  0  0  0  0  0
   -1.0323    0.7500    0.0000 N   0  0  0  0  0  0  0  0  0  0  0  0
   -1.0323   -0.7500    0.0000 C   0  0  0  0  0  0  0  0  0  0  0  0
   -2.1470   -1.7537    0.0000 C   0  0  0  0  0  0  0  0  0  0  0  0
   -3.5736   -1.2902    0.0000 C   0  0  0  0  0  0  0  0  0  0  0  0
   -4.6883   -2.2939    0.0000 C   0  0  0  0  0  0  0  0  0  0  0  0
   -6.1149   -1.8303    0.0000 C   0  0  0  0  0  0  0  0  0  0  0  0
   -6.4268   -0.3631    0.0000 C   0  0  0  0  0  0  0  0  0  0  0  0
   -7.8533    0.1004    0.0000 C   0  0  0  0  0  0  0  0  0  0  0  0
   -8.9681   -0.9033    0.0000 C   0  0  0  0  0  0  0  0  0  0  0  0
   -8.6562   -2.3705    0.0000 C   0  0  0  0  0  0  0  0  0  0  0  0
   -7.2296   -2.8340    0.0000 C   0  0  0  0  0  0  0  0  0  0  0  0
   -4.3764   -3.7611    0.0000 C   0  0  0  0  0  0  0  0  0  0  0  0
   -5.4912   -4.7648    0.0000 C   0  0  0  0  0  0  0  0  0  0  0  0
   -6.9177   -4.3013    0.0000 C   0  0  0  0  0  0  0  0  0  0  0  0
   -8.0325   -5.3050    0.0000 C   0  0  0  0  0  0  0  0  0  0  0  0
   -7.7206   -6.7722    0.0000 C   0  0  0  0  0  0  0  0  0  0  0  0
   -8.8353   -7.7759    0.0000 C   0  0  0  0  0  0  0  0  0  0  0  0
  -10.2619   -7.3123    0.0000 N   0  0  0  0  0  0  0  0  0  0  0  0
  -10.5738   -5.8451    0.0000 C   0  0  0  0  0  0  0  0  0  0  0  0
  -12.0003   -5.3816    0.0000 C   0  0  0  0  0  0  0  0  0  0  0  0
  -13.1151   -6.3853    0.0000 C   0  0  0  0  0  0  0  0  0  0  0  0
  -14.5416   -5.9218    0.0000 N   0  0  0  0  0  0  0  0  0  0  0  0
  -15.7552   -6.8034    0.0000 C   0  0  0  0  0  0  0  0  0  0  0  0
  -16.9687   -5.9218    0.0000 N   0  0  0  0  0  0  0  0  0  0  0  0
  -16.5052   -4.4952    0.0000 C   0  0  0  0  0  0  0  0  0  0  0  0
  -17.3868   -3.2817    0.0000 C   0  0  0  0  0  0  0  0  0  0  0  0
  -16.7767   -1.9113    0.0000 C   0  0  0  0  0  0  0  0  0  0  0  0
  -17.6584   -0.6978    0.0000 C   0  0  0  0  0  0  0  0  0  0  0  0
  -19.1502   -0.8546    0.0000 C   0  0  0  0  0  0  0  0  0  0  0  0
  -19.7603   -2.2249    0.0000 C   0  0  0  0  0  0  0  0  0  0  0  0
  -18.8786   -3.4385    0.0000 N   0  0  0  0  0  0  0  0  0  0  0  0
  -15.0052   -4.4952    0.0000 C   0  0  0  0  0  0  0  0  0  0  0  0
  -12.8032   -7.8525    0.0000 C   0  0  0  0  0  0  0  0  0  0  0  0
  -11.3766   -8.3160    0.0000 C   0  0  0  0  0  0  0  0  0  0  0  0
   -6.2940   -7.2357    0.0000 C   0  0  0  0  0  0  0  0  0  0  0  0
   -5.1793   -6.2320    0.0000 C   0  0  0  0  0  0  0  0  0  0  0  0
   -2.9499   -4.2246    0.0000 N   0  0  0  0  0  0  0  0  0  0  0  0
   -1.8351   -3.2209    0.0000 C   0  0  0  0  0  0  0  0  0  0  0  0
   -0.4086   -3.6844    0.0000 C   0  0  0  0  0  0  0  0  0  0  0  0
    0.7062   -2.6807    0.0000 C   0  0  0  0  0  0  0  0  0  0  0  0
    0.3943   -1.2135    0.0000 N   0  0  0  0  0  0  0  0  0  0  0  0
  1  2  1  0
  2  3  2  0
  3  4  1  0
  4  5  2  0
  5  6  1  0
  6  7  2  0
  7  8  1  0
  8  9  1  0
  9 10  2  0
 10 11  1  0
 11 12  2  0
 12 13  1  0
 13 14  2  0
  8 15  2  0
 15 16  1  0
 16 17  2  0
 17 18  1  0
 18 19  2  0
 19 20  1  0
 20 21  1  0
 21 22  1  0
 22 23  1  0
 23 24  1  0
 24 25  1  0
 25 26  1  0
 26 27  2  0
 27 28  1  0
 28 29  1  0
 29 30  2  0
 30 31  1  0
 31 32  2  0
 32 33  1  0
 33 34  2  0
 28 35  2  0
 24 36  1  0
 36 37  1  0
 19 38  1  0
 38 39  2  0
 15 40  1  0
 40 41  2  0
 41 42  1  0
 42 43  2  0
 43 44  1  0
 44  2  1  0
 44  5  1  0
 41  6  1  0
 14  9  1  0
 39 16  1  0
 37 21  1  0
 35 25  1  0
 34 29  1  0
M  END
>  <Compound_ID>  (2) 
CHEMBL508794

>  <Active>  (2) 
1

>  <Smiles>  (2) 
Nc1nnc2c3cc(-c4ccccc4)c(-c4ccc(CN5CCC(n6cnc(-c7ccccn7)c6)CC5)cc4)nc3ccn12

>  <canonical_smi>  (2) 
Nc1nnc2c3cc(-c4ccccc4)c(-c4ccc(CN5CCC(n6cnc(-c7ccccn7)c6)CC5)cc4)nc3ccn12

>  <Set>  (2) 
G1 active

>  <Set_type>  (2) 
G1

>  <MW>  (2) 
577.7

>  <HBD>  (2) 
1

>  <HBA>  (2) 
7

>  <NRB>  (2) 
6

>  <NR>  (2) 
8

>  <NAR>  (2) 
7

>  <PSA>  (2) 
103.05

>  <Standard Type>  (2) 
nan

>  <Standard Relation>  (2) 
nan

>  <Standard Units>  (2) 
nan

>  <Standard Value>  (2) 
nan

>  <Assay ChEMBL ID>  (2) 
nan

>  <Assay Description>  (2) 
nan

>  <BAO Label>  (2) 
nan

$$$$

     RDKit          2D

 32 36  0  0  0  0  0  0  0  0999 V2000
    2.2500   -6.4952    0.0000 C   0  0  0  0  0  0  0  0  0  0  0  0
    0.7500   -6.4952    0.0000 C   0  0  0  0  0  0  0  0  0  0  0  0
   -0.7500   -6.4952    0.0000 C   0  0  0  0  0  0  0  0  0  0  0  0
   -1.5000   -7.7942    0.0000 N   0  0  0  0  0  0  0  0  0  0  0  0
   -3.0000   -7.7942    0.0000 C   0  0  0  0  0  0  0  0  0  0  0  0
   -3.7500   -6.4952    0.0000 C   0  0  0  0  0  0  0  0  0  0  0  0
   -5.2500   -6.4952    0.0000 O   0  0  0  0  0  0  0  0  0  0  0  0
   -6.0000   -5.1962    0.0000 C   0  0  0  0  0  0  0  0  0  0  0  0
   -7.5000   -5.1962    0.0000 C   0  0  0  0  0  0  0  0  0  0  0  0
   -8.2500   -6.4952    0.0000 N   0  0  0  0  0  0  0  0  0  0  0  0
   -8.2500   -3.8971    0.0000 C   0  0  0  0  0  0  0  0  0  0  0  0
   -9.7500   -3.8971    0.0000 C   0  0  0  0  0  0  0  0  0  0  0  0
  -10.6317   -5.1106    0.0000 C   0  0  0  0  0  0  0  0  0  0  0  0
  -12.0583   -4.6471    0.0000 N   0  0  0  0  0  0  0  0  0  0  0  0
  -12.0583   -3.1471    0.0000 C   0  0  0  0  0  0  0  0  0  0  0  0
  -13.1730   -2.1434    0.0000 C   0  0  0  0  0  0  0  0  0  0  0  0
  -12.8611   -0.6762    0.0000 C   0  0  0  0  0  0  0  0  0  0  0  0
  -11.4345   -0.2127    0.0000 C   0  0  0  0  0  0  0  0  0  0  0  0
  -10.3198   -1.2164    0.0000 C   0  0  0  0  0  0  0  0  0  0  0  0
  -10.6317   -2.6836    0.0000 C   0  0  0  0  0  0  0  0  0  0  0  0
   -3.0000   -5.1962    0.0000 C   0  0  0  0  0  0  0  0  0  0  0  0
   -1.5000   -5.1962    0.0000 C   0  0  0  0  0  0  0  0  0  0  0  0
   -0.7500   -3.8971    0.0000 C   0  0  0  0  0  0  0  0  0  0  0  0
    0.7500   -3.8971    0.0000 C   0  0  0  0  0  0  0  0  0  0  0  0
    1.5000   -2.5981    0.0000 C   0  0  0  0  0  0  0  0  0  0  0  0
    0.7500   -1.2990    0.0000 C   0  0  0  0  0  0  0  0  0  0  0  0
    1.5000    0.0000    0.0000 C   0  0  0  0  0  0  0  0  0  0  0  0
    0.7500    1.2990    0.0000 N   0  0  0  0  0  0  0  0  0  0  0  0
   -0.7500    1.2990    0.0000 C   0  0  0  0  0  0  0  0  0  0  0  0
   -1.5000    0.0000    0.0000 C   0  0  0  0  0  0  0  0  0  0  0  0
   -0.7500   -1.2990    0.0000 C   0  0  0  0  0  0  0  0  0  0  0  0
   -1.5000   -2.5981    0.0000 C   0  0  0  0  0  0  0  0  0  0  0  0
  1  2  3  0
  2  3  1  0
  3  4  2  0
  4  5  1  0
  5  6  2  0
  6  7  1  0
  7  8  1  0
  8  9  1  0
  9 10  1  1
  9 11  1  0
 11 12  1  0
 12 13  2  0
 13 14  1  0
 14 15  1  0
 15 16  2  0
 16 17  1  0
 17 18  2  0
 18 19  1  0
 19 20  2  0
  6 21  1  0
 21 22  2  0
 22 23  1  0
 23 24  2  0
 24 25  1  0
 25 26  2  0
 26 27  1  0
 27 28  2  0
 28 29  1  0
 29 30  2  0
 30 31  1  0
 31 32  2  0
 22  3  1  0
 32 23  1  0
 20 12  1  0
 31 26  1  0
 20 15  1  0
M  END
>  <Compound_ID>  (3) 
CHEMBL207544

>  <Active>  (3) 
1

>  <Smiles>  (3) 
C#Cc1ncc(OC[C@@H](N)Cc2c[nH]c3ccccc23)cc1-c1ccc2cnccc2c1

>  <canonical_smi>  (3) 
C#Cc1ncc(OC[C@@H](N)Cc2c[nH]c3ccccc23)cc1-c1ccc2cnccc2c1

>  <Set>  (3) 
G1 active

>  <Set_type>  (3) 
G1

>  <MW>  (3) 
418.5

>  <HBD>  (3) 
2

>  <HBA>  (3) 
4

>  <NRB>  (3) 
6

>  <NR>  (3) 
5

>  <NAR>  (3) 
5

>  <PSA>  (3) 
76.82

>  <Standard Type>  (3) 
nan

>  <Standard Relation>  (3) 
nan

>  <Standard Units>  (3) 
nan

>  <Standard Value>  (3) 
nan

>  <Assay ChEMBL ID>  (3) 
nan

>  <Assay Description>  (3) 
nan

>  <BAO Label>  (3) 
nan

$$$$

     RDKit          2D

 24 27  0  0  0  0  0  0  0  0999 V2000
   -7.8175    0.9250    0.0000 N   0  0  0  0  0  0  0  0  0  0  0  0
   -6.4268    0.3631    0.0000 C   0  0  0  0  0  0  0  0  0  0  0  0
   -7.2216   -0.9090    0.0000 C   0  0  0  0  0  0  0  0  0  0  0  0
   -8.7207   -0.8566    0.0000 C   0  0  0  0  0  0  0  0  0  0  0  0
   -9.4249    0.4678    0.0000 C   0  0  0  0  0  0  0  0  0  0  0  0
  -10.9240    0.5202    0.0000 C   0  0  0  0  0  0  0  0  0  0  0  0
  -11.7189   -0.7519    0.0000 C   0  0  0  0  0  0  0  0  0  0  0  0
  -13.2180   -0.6996    0.0000 Cl  0  0  0  0  0  0  0  0  0  0  0  0
  -11.0147   -2.0763    0.0000 C   0  0  0  0  0  0  0  0  0  0  0  0
   -9.5156   -2.1287    0.0000 C   0  0  0  0  0  0  0  0  0  0  0  0
   -5.3120   -0.6406    0.0000 C   0  0  0  0  0  0  0  0  0  0  0  0
   -3.8855   -0.1771    0.0000 C   0  0  0  0  0  0  0  0  0  0  0  0
   -3.5736    1.2902    0.0000 N   0  0  0  0  0  0  0  0  0  0  0  0
   -2.1470    1.7537    0.0000 C   0  0  0  0  0  0  0  0  0  0  0  0
   -1.8351    3.2209    0.0000 C   0  0  0  0  0  0  0  0  0  0  0  0
   -0.4086    3.6844    0.0000 C   0  0  0  0  0  0  0  0  0  0  0  0
    0.7062    2.6807    0.0000 N   0  0  0  0  0  0  0  0  0  0  0  0
    0.3943    1.2135    0.0000 C   0  0  0  0  0  0  0  0  0  0  0  0
    1.2760    0.0000    0.0000 N   0  0  0  0  0  0  0  0  0  0  0  0
    0.3943   -1.2135    0.0000 C   0  0  0  0  0  0  0  0  0  0  0  0
   -1.0323   -0.7500    0.0000 C   0  0  0  0  0  0  0  0  0  0  0  0
   -1.0323    0.7500    0.0000 C   0  0  0  0  0  0  0  0  0  0  0  0
   -4.6883    2.2939    0.0000 C   0  0  0  0  0  0  0  0  0  0  0  0
   -6.1149    1.8303    0.0000 C   0  0  0  0  0  0  0  0  0  0  0  0
  1  2  1  0
  2  3  1  0
  3  4  1  0
  4  5  2  0
  5  6  1  0
  6  7  2  0
  7  8  1  0
  7  9  1  0
  9 10  2  0
  2 11  1  0
 11 12  1  0
 12 13  1  0
 13 14  1  0
 14 15  2  0
 15 16  1  0
 16 17  2  0
 17 18  1  0
 18 19  1  0
 19 20  1  0
 20 21  2  0
 21 22  1  0
 13 23  1  0
 23 24  1  0
 24  2  1  0
 10  4  1  0
 22 14  1  0
 22 18  2  0
M  END
>  <Compound_ID>  (4) 
CHEMBL596991

>  <Active>  (4) 
1

>  <Smiles>  (4) 
NC1(Cc2ccc(Cl)cc2)CCN(c2ccnc3[nH]ccc23)CC1

>  <canonical_smi>  (4) 
NC1(Cc2ccc(Cl)cc2)CCN(c2ccnc3[nH]ccc23)CC1

>  <Set>  (4) 
G1 active

>  <Set_type>  (4) 
G1

>  <MW>  (4) 
340.86

>  <HBD>  (4) 
2

>  <HBA>  (4) 
3

>  <NRB>  (4) 
3

>  <NR>  (4) 
4

>  <NAR>  (4) 
3

>  <PSA>  (4) 
57.94

>  <Standard Type>  (4) 
nan

>  <Standard Relation>  (4) 
nan

>  <Standard Units>  (4) 
nan

>  <Standard Value>  (4) 
nan

>  <Assay ChEMBL ID>  (4) 
nan

>  <Assay Description>  (4) 
nan

>  <BAO Label>  (4) 
nan

$$$$

     RDKit          2D

 35 42  0  0  0  0  0  0  0  0999 V2000
    7.0384   -5.9220    0.0000 C   0  0  0  0  0  0  0  0  0  0  0  0
    6.3474   -4.5907    0.0000 N   0  0  0  0  0  0  0  0  0  0  0  0
    4.8489   -4.5234    0.0000 C   0  0  0  0  0  0  0  0  0  0  0  0
    4.0414   -5.7874    0.0000 C   0  0  0  0  0  0  0  0  0  0  0  0
    2.5382   -5.8249    0.0000 C   0  0  0  0  0  0  0  0  0  0  0  0
    3.2490   -4.5040    0.0000 O   0  0  0  0  0  0  0  0  0  0  0  0
    2.6595   -3.1247    0.0000 C   0  0  0  0  0  0  0  0  0  0  0  0
    3.6464   -1.9951    0.0000 C   0  0  0  0  0  0  0  0  0  0  0  0
    4.1580   -3.1920    0.0000 C   0  0  0  0  0  0  0  0  0  0  0  0
    4.9655   -1.9279    0.0000 O   0  0  0  0  0  0  0  0  0  0  0  0
    6.4640   -1.9952    0.0000 C   0  0  0  0  0  0  0  0  0  0  0  0
    1.2135   -2.7256    0.0000 N   0  0  0  0  0  0  0  0  0  0  0  0
    0.7500   -1.2990    0.0000 C   0  0  0  0  0  0  0  0  0  0  0  0
    1.5000    0.0000    0.0000 C   0  0  0  0  0  0  0  0  0  0  0  0
    0.7500    1.2990    0.0000 C   0  0  0  0  0  0  0  0  0  0  0  0
   -0.7500    1.2990    0.0000 C   0  0  0  0  0  0  0  0  0  0  0  0
   -1.5000    0.0000    0.0000 C   0  0  0  0  0  0  0  0  0  0  0  0
   -0.7500   -1.2990    0.0000 C   0  0  0  0  0  0  0  0  0  0  0  0
   -1.2135   -2.7256    0.0000 C   0  0  0  0  0  0  0  0  0  0  0  0
   -2.5518   -3.5691    0.0000 C   0  0  0  0  0  0  0  0  0  0  0  0
   -2.6191   -5.0676    0.0000 C   0  0  0  0  0  0  0  0  0  0  0  0
   -1.3550   -5.8751    0.0000 C   0  0  0  0  0  0  0  0  0  0  0  0
   -1.0212   -7.3375    0.0000 C   0  0  0  0  0  0  0  0  0  0  0  0
   -1.8846   -8.5641    0.0000 C   0  0  0  0  0  0  0  0  0  0  0  0
   -1.2541   -9.9251    0.0000 C   0  0  0  0  0  0  0  0  0  0  0  0
    0.2399  -10.0596    0.0000 C   0  0  0  0  0  0  0  0  0  0  0  0
    1.1033   -8.8330    0.0000 C   0  0  0  0  0  0  0  0  0  0  0  0
    0.4728   -7.4720    0.0000 C   0  0  0  0  0  0  0  0  0  0  0  0
    1.0623   -6.0927    0.0000 N   0  0  0  0  0  0  0  0  0  0  0  0
   -0.0673   -5.1058    0.0000 C   0  0  0  0  0  0  0  0  0  0  0  0
   -0.0000   -3.6073    0.0000 C   0  0  0  0  0  0  0  0  0  0  0  0
   -4.0650   -5.4667    0.0000 C   0  0  0  0  0  0  0  0  0  0  0  0
   -4.5921   -6.8710    0.0000 O   0  0  0  0  0  0  0  0  0  0  0  0
   -4.8913   -4.2148    0.0000 N   0  0  0  0  0  0  0  0  0  0  0  0
   -3.9561   -3.0421    0.0000 C   0  0  0  0  0  0  0  0  0  0  0  0
  1  2  1  0
  3  2  1  6
  3  4  1  0
  4  5  1  0
  5  6  1  0
  6  7  1  0
  7  8  1  1
  7  9  1  0
  9 10  1  6
 10 11  1  0
  7 12  1  0
 12 13  1  0
 13 14  2  0
 14 15  1  0
 15 16  2  0
 16 17  1  0
 17 18  2  0
 18 19  1  0
 19 20  2  0
 20 21  1  0
 21 22  2  0
 22 23  1  0
 23 24  2  0
 24 25  1  0
 25 26  2  0
 26 27  1  0
 27 28  2  0
 28 29  1  0
 29 30  1  0
 30 31  2  0
 21 32  1  0
 32 33  2  0
 32 34  1  0
 34 35  1  0
  9  3  1  0
 31 12  1  0
 29  5  1  0
 18 13  1  0
 31 19  1  0
 35 20  1  0
 30 22  1  0
 28 23  1  0
M  END
>  <Compound_ID>  (5) 
CHEMBL162

>  <Active>  (5) 
1

>  <Smiles>  (5) 
CN[C@@H]1CC2O[C@@](C)([C@@H]1OC)n1c3ccccc3c3c4c(c5c6ccccc6n2c5c31)C(=O)NC4

>  <canonical_smi>  (5) 
CN[C@@H]1CC2O[C@@](C)([C@@H]1OC)n1c3ccccc3c3c4c(c5c6ccccc6n2c5c31)C(=O)NC4

>  <Set>  (5) 
G1 active

>  <Set_type>  (5) 
G1

>  <MW>  (5) 
466.54

>  <HBD>  (5) 
2

>  <HBA>  (5) 
4

>  <NRB>  (5) 
2

>  <NR>  (5) 
8

>  <NAR>  (5) 
5

>  <PSA>  (5) 
69.45

>  <Standard Type>  (5) 
nan

>  <Standard Relation>  (5) 
nan

>  <Standard Units>  (5) 
nan

>  <Standard Value>  (5) 
nan

>  <Assay ChEMBL ID>  (5) 
nan

>  <Assay Description>  (5) 
nan

>  <BAO Label>  (5) 
nan

$$$$

     RDKit          2D

 23 26  0  0  0  0  0  0  0  0999 V2000
   -7.8175    0.9250    0.0000 N   0  0  0  0  0  0  0  0  0  0  0  0
   -6.4268    0.3631    0.0000 C   0  0  0  0  0  0  0  0  0  0  0  0
   -7.2216   -0.9090    0.0000 C   0  0  0  0  0  0  0  0  0  0  0  0
   -8.7207   -0.8566    0.0000 C   0  0  0  0  0  0  0  0  0  0  0  0
   -9.5156   -2.1287    0.0000 C   0  0  0  0  0  0  0  0  0  0  0  0
   -8.8114   -3.4531    0.0000 C   0  0  0  0  0  0  0  0  0  0  0  0
   -9.6063   -4.7252    0.0000 Cl  0  0  0  0  0  0  0  0  0  0  0  0
   -7.3123   -3.5054    0.0000 C   0  0  0  0  0  0  0  0  0  0  0  0
   -6.5174   -2.2334    0.0000 C   0  0  0  0  0  0  0  0  0  0  0  0
   -5.3120   -0.6406    0.0000 C   0  0  0  0  0  0  0  0  0  0  0  0
   -3.8855   -0.1771    0.0000 C   0  0  0  0  0  0  0  0  0  0  0  0
   -3.5736    1.2902    0.0000 N   0  0  0  0  0  0  0  0  0  0  0  0
   -2.1470    1.7537    0.0000 C   0  0  0  0  0  0  0  0  0  0  0  0
   -1.8351    3.2209    0.0000 N   0  0  0  0  0  0  0  0  0  0  0  0
   -0.4086    3.6844    0.0000 C   0  0  0  0  0  0  0  0  0  0  0  0
    0.7062    2.6807    0.0000 N   0  0  0  0  0  0  0  0  0  0  0  0
    0.3943    1.2135    0.0000 C   0  0  0  0  0  0  0  0  0  0  0  0
    1.2760    0.0000    0.0000 N   0  0  0  0  0  0  0  0  0  0  0  0
    0.3943   -1.2135    0.0000 C   0  0  0  0  0  0  0  0  0  0  0  0
   -1.0323   -0.7500    0.0000 N   0  0  0  0  0  0  0  0  0  0  0  0
   -1.0323    0.7500    0.0000 C   0  0  0  0  0  0  0  0  0  0  0  0
   -4.6883    2.2939    0.0000 C   0  0  0  0  0  0  0  0  0  0  0  0
   -6.1149    1.8303    0.0000 C   0  0  0  0  0  0  0  0  0  0  0  0
  1  2  1  0
  2  3  1  0
  3  4  2  0
  4  5  1  0
  5  6  2  0
  6  7  1  0
  6  8  1  0
  8  9  2  0
  2 10  1  0
 10 11  1  0
 11 12  1  0
 12 13  1  0
 13 14  2  0
 14 15  1  0
 15 16  2  0
 16 17  1  0
 17 18  1  0
 18 19  1  0
 19 20  2  0
 20 21  1  0
 12 22  1  0
 22 23  1  0
 23  2  1  0
  9  3  1  0
 21 13  1  0
 21 17  2  0
M  END
>  <Compound_ID>  (6) 
CHEMBL407504

>  <Active>  (6) 
1

>  <Smiles>  (6) 
NC1(c2ccc(Cl)cc2)CCN(c2ncnc3[nH]cnc23)CC1

>  <canonical_smi>  (6) 
NC1(c2ccc(Cl)cc2)CCN(c2ncnc3[nH]cnc23)CC1

>  <Set>  (6) 
G1 active

>  <Set_type>  (6) 
G1

>  <MW>  (6) 
328.81

>  <HBD>  (6) 
2

>  <HBA>  (6) 
5

>  <NRB>  (6) 
2

>  <NR>  (6) 
4

>  <NAR>  (6) 
3

>  <PSA>  (6) 
83.72

>  <Standard Type>  (6) 
nan

>  <Standard Relation>  (6) 
nan

>  <Standard Units>  (6) 
nan

>  <Standard Value>  (6) 
nan

>  <Assay ChEMBL ID>  (6) 
nan

>  <Assay Description>  (6) 
nan

>  <BAO Label>  (6) 
nan

$$$$

     RDKit          2D

 26 29  0  0  0  0  0  0  0  0999 V2000
    5.2500   -1.2990    0.0000 N   0  0  0  0  0  0  0  0  0  0  0  0
    3.7500   -1.2990    0.0000 C   0  0  0  0  0  0  0  0  0  0  0  0
    3.0000   -2.5981    0.0000 O   0  0  0  0  0  0  0  0  0  0  0  0
    3.0000    0.0000    0.0000 N   0  0  0  0  0  0  0  0  0  0  0  0
    1.5000    0.0000    0.0000 C   0  0  0  0  0  0  0  0  0  0  0  0
    0.7500   -1.2990    0.0000 C   0  0  0  0  0  0  0  0  0  0  0  0
   -0.7500   -1.2990    0.0000 C   0  0  0  0  0  0  0  0  0  0  0  0
   -1.5000    0.0000    0.0000 C   0  0  0  0  0  0  0  0  0  0  0  0
   -0.7500    1.2990    0.0000 C   0  0  0  0  0  0  0  0  0  0  0  0
    0.7500    1.2990    0.0000 C   0  0  0  0  0  0  0  0  0  0  0  0
   -1.7537    2.4138    0.0000 C   0  0  0  0  0  0  0  0  0  0  0  0
   -1.4418    3.8810    0.0000 C   0  0  0  0  0  0  0  0  0  0  0  0
   -2.5565    4.8847    0.0000 C   0  0  0  0  0  0  0  0  0  0  0  0
   -4.0238    4.5728    0.0000 C   0  0  0  0  0  0  0  0  0  0  0  0
   -4.7738    5.8718    0.0000 C   0  0  0  0  0  0  0  0  0  0  0  0
   -6.2655    6.0286    0.0000 C   0  0  0  0  0  0  0  0  0  0  0  0
   -6.8757    7.3990    0.0000 C   0  0  0  0  0  0  0  0  0  0  0  0
   -8.3674    7.5557    0.0000 C   0  0  0  0  0  0  0  0  0  0  0  0
   -9.2491    6.3422    0.0000 C   0  0  0  0  0  0  0  0  0  0  0  0
   -8.6390    4.9719    0.0000 N   0  0  0  0  0  0  0  0  0  0  0  0
   -7.1472    4.8151    0.0000 C   0  0  0  0  0  0  0  0  0  0  0  0
   -3.7701    6.9866    0.0000 C   0  0  0  0  0  0  0  0  0  0  0  0
   -2.3998    6.3765    0.0000 N   0  0  0  0  0  0  0  0  0  0  0  0
   -3.1240    1.8037    0.0000 C   0  0  0  0  0  0  0  0  0  0  0  0
   -4.4231    2.5537    0.0000 O   0  0  0  0  0  0  0  0  0  0  0  0
   -2.9672    0.3119    0.0000 N   0  0  0  0  0  0  0  0  0  0  0  0
  1  2  1  0
  2  3  2  0
  2  4  1  0
  4  5  1  0
  5  6  2  0
  6  7  1  0
  7  8  2  0
  8  9  1  0
  9 10  2  0
  9 11  1  0
 11 12  2  0
 12 13  1  0
 13 14  2  0
 14 15  1  0
 15 16  1  0
 16 17  2  0
 17 18  1  0
 18 19  2  0
 19 20  1  0
 20 21  2  0
 15 22  2  0
 22 23  1  0
 11 24  1  0
 24 25  2  0
 24 26  1  0
 10  5  1  0
 23 13  1  0
 26  8  1  0
 21 16  1  0
M  END
>  <Compound_ID>  (7) 
CHEMBL375236

>  <Active>  (7) 
1

>  <Smiles>  (7) 
NC(=O)Nc1ccc2c(c1)/C(=C/c1cc(-c3cccnc3)c[nH]1)C(=O)N2

>  <canonical_smi>  (7) 
NC(=O)Nc1ccc2c(c1)/C(=C/c1cc(-c3cccnc3)c[nH]1)C(=O)N2

>  <Set>  (7) 
G1 active

>  <Set_type>  (7) 
G1

>  <MW>  (7) 
345.36

>  <HBD>  (7) 
4

>  <HBA>  (7) 
3

>  <NRB>  (7) 
3

>  <NR>  (7) 
4

>  <NAR>  (7) 
3

>  <PSA>  (7) 
112.9

>  <Standard Type>  (7) 
nan

>  <Standard Relation>  (7) 
nan

>  <Standard Units>  (7) 
nan

>  <Standard Value>  (7) 
nan

>  <Assay ChEMBL ID>  (7) 
nan

>  <Assay Description>  (7) 
nan

>  <BAO Label>  (7) 
nan

$$$$

     RDKit          2D

 29 32  0  0  0  0  0  0  0  0999 V2000
   -2.9520   -4.6564    0.0000 C   0  0  0  0  0  0  0  0  0  0  0  0
   -2.6401   -3.1891    0.0000 C   0  0  0  0  0  0  0  0  0  0  0  0
   -1.2135   -2.7256    0.0000 C   0  0  0  0  0  0  0  0  0  0  0  0
   -0.0000   -3.6073    0.0000 C   0  0  0  0  0  0  0  0  0  0  0  0
    1.2135   -2.7256    0.0000 N   0  0  0  0  0  0  0  0  0  0  0  0
    0.7500   -1.2990    0.0000 C   0  0  0  0  0  0  0  0  0  0  0  0
    1.5000    0.0000    0.0000 N   0  0  0  0  0  0  0  0  0  0  0  0
    0.7500    1.2990    0.0000 C   0  0  0  0  0  0  0  0  0  0  0  0
   -0.7500    1.2990    0.0000 N   0  0  0  0  0  0  0  0  0  0  0  0
   -1.5000    0.0000    0.0000 C   0  0  0  0  0  0  0  0  0  0  0  0
   -3.0000    0.0000    0.0000 N   0  0  0  0  0  0  0  0  0  0  0  0
   -3.8817   -1.2135    0.0000 C   0  0  0  0  0  0  0  0  0  0  0  0
   -5.3083   -0.7500    0.0000 C   0  0  0  0  0  0  0  0  0  0  0  0
   -5.3083    0.7500    0.0000 C   0  0  0  0  0  0  0  0  0  0  0  0
   -5.6201    2.2172    0.0000 N   0  0  0  0  0  0  0  0  0  0  0  0
   -6.8000    0.5932    0.0000 C   0  0  0  0  0  0  0  0  0  0  0  0
   -7.6817    1.8067    0.0000 N   0  0  0  0  0  0  0  0  0  0  0  0
   -9.1735    1.6499    0.0000 C   0  0  0  0  0  0  0  0  0  0  0  0
   -9.7836    0.2796    0.0000 O   0  0  0  0  0  0  0  0  0  0  0  0
  -10.0552    2.8635    0.0000 C   0  0  0  0  0  0  0  0  0  0  0  0
   -9.4451    4.2338    0.0000 C   0  0  0  0  0  0  0  0  0  0  0  0
  -10.3268    5.4473    0.0000 C   0  0  0  0  0  0  0  0  0  0  0  0
  -11.8185    5.2905    0.0000 C   0  0  0  0  0  0  0  0  0  0  0  0
  -12.7002    6.5040    0.0000 F   0  0  0  0  0  0  0  0  0  0  0  0
  -12.4286    3.9202    0.0000 C   0  0  0  0  0  0  0  0  0  0  0  0
  -11.5470    2.7067    0.0000 C   0  0  0  0  0  0  0  0  0  0  0  0
  -12.1571    1.3364    0.0000 F   0  0  0  0  0  0  0  0  0  0  0  0
   -3.8817    1.2135    0.0000 C   0  0  0  0  0  0  0  0  0  0  0  0
   -0.7500   -1.2990    0.0000 C   0  0  0  0  0  0  0  0  0  0  0  0
  1  2  1  0
  2  3  1  0
  3  4  2  0
  4  5  1  0
  5  6  1  0
  6  7  2  0
  7  8  1  0
  8  9  2  0
  9 10  1  0
 10 11  1  0
 11 12  1  0
 12 13  1  0
 13 14  1  0
 14 15  1  1
 14 16  1  0
 16 17  1  0
 17 18  1  0
 18 19  2  0
 18 20  1  0
 20 21  2  0
 21 22  1  0
 22 23  2  0
 23 24  1  0
 23 25  1  0
 25 26  2  0
 26 27  1  0
 14 28  1  0
 10 29  2  0
 29  3  1  0
 29  6  1  0
 28 11  1  0
 26 20  1  0
M  END
>  <Compound_ID>  (8) 
CHEMBL1171647

>  <Active>  (8) 
1

>  <Smiles>  (8) 
CCc1c[nH]c2ncnc(N3CC[C@](N)(CNC(=O)c4ccc(F)cc4F)C3)c12

>  <canonical_smi>  (8) 
CCc1c[nH]c2ncnc(N3CC[C@](N)(CNC(=O)c4ccc(F)cc4F)C3)c12

>  <Set>  (8) 
G1 active

>  <Set_type>  (8) 
G1

>  <MW>  (8) 
400.43

>  <HBD>  (8) 
3

>  <HBA>  (8) 
5

>  <NRB>  (8) 
5

>  <NR>  (8) 
4

>  <NAR>  (8) 
3

>  <PSA>  (8) 
99.93

>  <Standard Type>  (8) 
nan

>  <Standard Relation>  (8) 
nan

>  <Standard Units>  (8) 
nan

>  <Standard Value>  (8) 
nan

>  <Assay ChEMBL ID>  (8) 
nan

>  <Assay Description>  (8) 
nan

>  <BAO Label>  (8) 
nan

$$$$

     RDKit          2D

 31 34  0  0  0  0  0  0  0  0999 V2000
   -3.7548   -2.1855    0.0000 C   0  0  0  0  0  0  0  0  0  0  0  0
   -2.6401   -3.1891    0.0000 C   0  0  0  0  0  0  0  0  0  0  0  0
   -1.2135   -2.7256    0.0000 C   0  0  0  0  0  0  0  0  0  0  0  0
   -0.0000   -3.6073    0.0000 C   0  0  0  0  0  0  0  0  0  0  0  0
    0.0000   -5.1073    0.0000 O   0  0  0  0  0  0  0  0  0  0  0  0
    1.2135   -2.7256    0.0000 N   0  0  0  0  0  0  0  0  0  0  0  0
    0.7500   -1.2990    0.0000 C   0  0  0  0  0  0  0  0  0  0  0  0
    1.5000    0.0000    0.0000 C   0  0  0  0  0  0  0  0  0  0  0  0
    0.7500    1.2990    0.0000 C   0  0  0  0  0  0  0  0  0  0  0  0
   -0.7500    1.2990    0.0000 C   0  0  0  0  0  0  0  0  0  0  0  0
   -1.5000    2.5981    0.0000 N   0  0  0  0  0  0  0  0  0  0  0  0
   -0.7500    3.8971    0.0000 C   0  0  0  0  0  0  0  0  0  0  0  0
   -1.5000    5.1962    0.0000 N   0  0  0  0  0  0  0  0  0  0  0  0
    0.7500    3.8971    0.0000 O   0  0  0  0  0  0  0  0  0  0  0  0
   -1.5000    0.0000    0.0000 C   0  0  0  0  0  0  0  0  0  0  0  0
   -0.7500   -1.2990    0.0000 C   0  0  0  0  0  0  0  0  0  0  0  0
   -2.9520   -4.6564    0.0000 C   0  0  0  0  0  0  0  0  0  0  0  0
   -1.9483   -5.7711    0.0000 C   0  0  0  0  0  0  0  0  0  0  0  0
   -2.6983   -7.0701    0.0000 C   0  0  0  0  0  0  0  0  0  0  0  0
   -2.0882   -8.4404    0.0000 C   0  0  0  0  0  0  0  0  0  0  0  0
   -2.9699   -9.6540    0.0000 N   0  0  0  0  0  0  0  0  0  0  0  0
   -2.3597  -11.0243    0.0000 C   0  0  0  0  0  0  0  0  0  0  0  0
   -0.8680  -11.1811    0.0000 O   0  0  0  0  0  0  0  0  0  0  0  0
   -3.2414  -12.2378    0.0000 C   0  0  0  0  0  0  0  0  0  0  0  0
   -4.7332  -12.0810    0.0000 C   0  0  0  0  0  0  0  0  0  0  0  0
   -5.6149  -13.2945    0.0000 C   0  0  0  0  0  0  0  0  0  0  0  0
   -5.0048  -14.6649    0.0000 C   0  0  0  0  0  0  0  0  0  0  0  0
   -3.5130  -14.8217    0.0000 N   0  0  0  0  0  0  0  0  0  0  0  0
   -2.6313  -13.6081    0.0000 C   0  0  0  0  0  0  0  0  0  0  0  0
   -4.1655   -6.7583    0.0000 C   0  0  0  0  0  0  0  0  0  0  0  0
   -4.3223   -5.2665    0.0000 N   0  0  0  0  0  0  0  0  0  0  0  0
  1  2  1  0
  2  3  2  0
  3  4  1  0
  4  5  2  0
  4  6  1  0
  6  7  1  0
  7  8  2  0
  8  9  1  0
  9 10  2  0
 10 11  1  0
 11 12  1  0
 12 13  1  0
 12 14  2  0
 10 15  1  0
 15 16  2  0
  2 17  1  0
 17 18  2  0
 18 19  1  0
 19 20  1  0
 20 21  1  0
 21 22  1  0
 22 23  2  0
 22 24  1  0
 24 25  2  0
 25 26  1  0
 26 27  2  0
 27 28  1  0
 28 29  2  0
 19 30  2  0
 30 31  1  0
 16  3  1  0
 31 17  1  0
 16  7  1  0
 29 24  1  0
M  END
>  <Compound_ID>  (9) 
CHEMBL388739

>  <Active>  (9) 
1

>  <Smiles>  (9) 
C/C(=C1/C(=O)Nc2ccc(NC(N)=O)cc21)c1cc(CNC(=O)c2cccnc2)c[nH]1

>  <canonical_smi>  (9) 
C/C(=C1/C(=O)Nc2ccc(NC(N)=O)cc21)c1cc(CNC(=O)c2cccnc2)c[nH]1

>  <Set>  (9) 
G1 active

>  <Set_type>  (9) 
G1

>  <MW>  (9) 
416.44

>  <HBD>  (9) 
5

>  <HBA>  (9) 
4

>  <NRB>  (9) 
5

>  <NR>  (9) 
4

>  <NAR>  (9) 
3

>  <PSA>  (9) 
142.0

>  <Standard Type>  (9) 
nan

>  <Standard Relation>  (9) 
nan

>  <Standard Units>  (9) 
nan

>  <Standard Value>  (9) 
nan

>  <Assay ChEMBL ID>  (9) 
nan

>  <Assay Description>  (9) 
nan

>  <BAO Label>  (9) 
nan

$$$$

     RDKit          2D

 31 36  0  0  0  0  0  0  0  0999 V2000
   -9.8390    6.6612    0.0000 N   0  0  0  0  0  0  0  0  0  0  0  0
   -8.8353    7.7759    0.0000 C   0  0  0  0  0  0  0  0  0  0  0  0
   -7.7206    6.7722    0.0000 C   0  0  0  0  0  0  0  0  0  0  0  0
   -8.0325    5.3050    0.0000 C   0  0  0  0  0  0  0  0  0  0  0  0
   -6.9177    4.3013    0.0000 C   0  0  0  0  0  0  0  0  0  0  0  0
   -5.4912    4.7648    0.0000 C   0  0  0  0  0  0  0  0  0  0  0  0
   -4.3764    3.7611    0.0000 C   0  0  0  0  0  0  0  0  0  0  0  0
   -2.9499    4.2246    0.0000 N   0  0  0  0  0  0  0  0  0  0  0  0
   -1.8351    3.2209    0.0000 C   0  0  0  0  0  0  0  0  0  0  0  0
   -0.4086    3.6844    0.0000 C   0  0  0  0  0  0  0  0  0  0  0  0
    0.7062    2.6807    0.0000 C   0  0  0  0  0  0  0  0  0  0  0  0
    0.3943    1.2135    0.0000 N   0  0  0  0  0  0  0  0  0  0  0  0
    1.2760    0.0000    0.0000 C   0  0  0  0  0  0  0  0  0  0  0  0
    2.7760    0.0000    0.0000 O   0  0  0  0  0  0  0  0  0  0  0  0
    0.3943   -1.2135    0.0000 N   0  0  0  0  0  0  0  0  0  0  0  0
   -1.0323   -0.7500    0.0000 N   0  0  0  0  0  0  0  0  0  0  0  0
   -1.0323    0.7500    0.0000 C   0  0  0  0  0  0  0  0  0  0  0  0
   -2.1470    1.7537    0.0000 C   0  0  0  0  0  0  0  0  0  0  0  0
   -3.5736    1.2902    0.0000 C   0  0  0  0  0  0  0  0  0  0  0  0
   -4.6883    2.2939    0.0000 C   0  0  0  0  0  0  0  0  0  0  0  0
   -6.1149    1.8303    0.0000 C   0  0  0  0  0  0  0  0  0  0  0  0
   -7.2296    2.8340    0.0000 C   0  0  0  0  0  0  0  0  0  0  0  0
   -8.6562    2.3705    0.0000 C   0  0  0  0  0  0  0  0  0  0  0  0
   -8.9681    0.9033    0.0000 C   0  0  0  0  0  0  0  0  0  0  0  0
   -7.8533   -0.1004    0.0000 C   0  0  0  0  0  0  0  0  0  0  0  0
   -6.4268    0.3631    0.0000 C   0  0  0  0  0  0  0  0  0  0  0  0
   -5.1793    6.2320    0.0000 C   0  0  0  0  0  0  0  0  0  0  0  0
   -6.2940    7.2357    0.0000 C   0  0  0  0  0  0  0  0  0  0  0  0
   -7.8316    8.8906    0.0000 C   0  0  0  0  0  0  0  0  0  0  0  0
   -8.9463    9.8943    0.0000 C   0  0  0  0  0  0  0  0  0  0  0  0
   -9.9500    8.7796    0.0000 C   0  0  0  0  0  0  0  0  0  0  0  0
  1  2  1  0
  2  3  1  0
  3  4  2  0
  4  5  1  0
  5  6  2  0
  6  7  1  0
  7  8  2  0
  8  9  1  0
  9 10  1  0
 10 11  2  0
 11 12  1  0
 12 13  1  0
 13 14  2  0
 13 15  1  0
 15 16  1  0
 16 17  2  0
 17 18  1  0
 18 19  1  0
 19 20  2  0
 20 21  1  0
 21 22  2  0
 22 23  1  0
 23 24  2  0
 24 25  1  0
 25 26  2  0
  6 27  1  0
 27 28  2  0
  2 29  1  0
 29 30  1  0
 30 31  1  0
 31  2  1  0
 28  3  1  0
 20  7  1  0
 26 21  1  0
 18  9  2  0
 17 12  1  0
M  END
>  <Compound_ID>  (10) 
CHEMBL1079175

>  <Active>  (10) 
1

>  <Smiles>  (10) 
NC1(c2ccc(-c3nc4ccn5c(=O)[nH]nc5c4cc3-c3ccccc3)cc2)CCC1

>  <canonical_smi>  (10) 
NC1(c2ccc(-c3nc4ccn5c(=O)[nH]nc5c4cc3-c3ccccc3)cc2)CCC1

>  <Set>  (10) 
G1 active

>  <Set_type>  (10) 
G1

>  <MW>  (10) 
407.48

>  <HBD>  (10) 
2

>  <HBA>  (10) 
4

>  <NRB>  (10) 
3

>  <NR>  (10) 
6

>  <NAR>  (10) 
5

>  <PSA>  (10) 
89.07

>  <Standard Type>  (10) 
nan

>  <Standard Relation>  (10) 
nan

>  <Standard Units>  (10) 
nan

>  <Standard Value>  (10) 
nan

>  <Assay ChEMBL ID>  (10) 
nan

>  <Assay Description>  (10) 
nan

>  <BAO Label>  (10) 
nan

$$$$

     RDKit          2D

 30 33  0  0  0  0  0  0  0  0999 V2000
   -3.7548   -2.1855    0.0000 C   0  0  0  0  0  0  0  0  0  0  0  0
   -2.6401   -3.1891    0.0000 C   0  0  0  0  0  0  0  0  0  0  0  0
   -1.2135   -2.7256    0.0000 N   0  0  0  0  0  0  0  0  0  0  0  0
   -0.0000   -3.6073    0.0000 C   0  0  0  0  0  0  0  0  0  0  0  0
   -0.0000   -5.1073    0.0000 C   0  0  0  0  0  0  0  0  0  0  0  0
    1.2135   -5.9890    0.0000 N   0  0  0  0  0  0  0  0  0  0  0  0
    0.7500   -7.4156    0.0000 O   0  0  0  0  0  0  0  0  0  0  0  0
   -0.7500   -7.4156    0.0000 N   0  0  0  0  0  0  0  0  0  0  0  0
   -1.2135   -5.9890    0.0000 C   0  0  0  0  0  0  0  0  0  0  0  0
   -2.6401   -5.5255    0.0000 N   0  0  0  0  0  0  0  0  0  0  0  0
    1.2135   -2.7256    0.0000 N   0  0  0  0  0  0  0  0  0  0  0  0
    0.7500   -1.2990    0.0000 C   0  0  0  0  0  0  0  0  0  0  0  0
    1.5000    0.0000    0.0000 C   0  0  0  0  0  0  0  0  0  0  0  0
    3.0000    0.0000    0.0000 C   0  0  0  0  0  0  0  0  0  0  0  0
    4.5000    0.0000    0.0000 C   0  0  0  0  0  0  0  0  0  0  0  0
    6.0000    0.0000    0.0000 C   0  0  0  0  0  0  0  0  0  0  0  0
    6.0000   -1.5000    0.0000 C   0  0  0  0  0  0  0  0  0  0  0  0
    6.0000    1.5000    0.0000 C   0  0  0  0  0  0  0  0  0  0  0  0
    7.5000    0.0000    0.0000 O   0  0  0  0  0  0  0  0  0  0  0  0
    0.7500    1.2990    0.0000 N   0  0  0  0  0  0  0  0  0  0  0  0
   -0.7500    1.2990    0.0000 C   0  0  0  0  0  0  0  0  0  0  0  0
   -1.5000    0.0000    0.0000 C   0  0  0  0  0  0  0  0  0  0  0  0
   -3.0000    0.0000    0.0000 O   0  0  0  0  0  0  0  0  0  0  0  0
   -3.7500    1.2990    0.0000 C   0  0  0  0  0  0  0  0  0  0  0  0
   -5.2500    1.2990    0.0000 C   0  0  0  0  0  0  0  0  0  0  0  0
   -6.1317    0.0855    0.0000 C   0  0  0  0  0  0  0  0  0  0  0  0
   -7.5583    0.5490    0.0000 C   0  0  0  0  0  0  0  0  0  0  0  0
   -7.5583    2.0490    0.0000 N   0  0  0  0  0  0  0  0  0  0  0  0
   -6.1317    2.5126    0.0000 C   0  0  0  0  0  0  0  0  0  0  0  0
   -0.7500   -1.2990    0.0000 C   0  0  0  0  0  0  0  0  0  0  0  0
  1  2  1  0
  2  3  1  0
  3  4  1  0
  4  5  1  0
  5  6  2  0
  6  7  1  0
  7  8  1  0
  8  9  2  0
  9 10  1  0
  4 11  2  0
 11 12  1  0
 12 13  2  0
 13 14  1  0
 14 15  3  0
 15 16  1  0
 16 17  1  0
 16 18  1  0
 16 19  1  0
 13 20  1  0
 20 21  2  0
 21 22  1  0
 22 23  1  0
 23 24  1  0
 24 25  1  0
 25 26  1  0
 26 27  1  0
 27 28  1  0
 28 29  1  0
 22 30  2  0
 30  3  1  0
  9  5  1  0
 30 12  1  0
 29 25  1  0
M  END
>  <Compound_ID>  (11) 
CHEMBL494088

>  <Active>  (11) 
1

>  <Smiles>  (11) 
CCn1c(-c2nonc2N)nc2c(C#CC(C)(C)O)ncc(OCC3CCNC3)c21

>  <canonical_smi>  (11) 
CCn1c(-c2nonc2N)nc2c(C#CC(C)(C)O)ncc(OCC3CCNC3)c21

>  <Set>  (11) 
G1 active

>  <Set_type>  (11) 
G1

>  <MW>  (11) 
411.47

>  <HBD>  (11) 
3

>  <HBA>  (11) 
9

>  <NRB>  (11) 
5

>  <NR>  (11) 
4

>  <NAR>  (11) 
3

>  <PSA>  (11) 
137.14

>  <Standard Type>  (11) 
nan

>  <Standard Relation>  (11) 
nan

>  <Standard Units>  (11) 
nan

>  <Standard Value>  (11) 
nan

>  <Assay ChEMBL ID>  (11) 
nan

>  <Assay Description>  (11) 
nan

>  <BAO Label>  (11) 
nan

$$$$

     RDKit          2D

 37 42  0  0  0  0  0  0  0  0999 V2000
   -9.9786  -11.0813    0.0000 C   0  0  0  0  0  0  0  0  0  0  0  0
  -10.8603   -9.8678    0.0000 C   0  0  0  0  0  0  0  0  0  0  0  0
  -12.3603   -9.8678    0.0000 O   0  0  0  0  0  0  0  0  0  0  0  0
  -12.8238   -8.4412    0.0000 C   0  0  0  0  0  0  0  0  0  0  0  0
  -11.6103   -7.5595    0.0000 C   0  0  0  0  0  0  0  0  0  0  0  0
  -10.3968   -8.4412    0.0000 C   0  0  0  0  0  0  0  0  0  0  0  0
   -8.9702   -7.9777    0.0000 C   0  0  0  0  0  0  0  0  0  0  0  0
   -7.8555   -8.9814    0.0000 N   0  0  0  0  0  0  0  0  0  0  0  0
   -6.4289   -8.5179    0.0000 C   0  0  0  0  0  0  0  0  0  0  0  0
   -5.3142   -9.5216    0.0000 N   0  0  0  0  0  0  0  0  0  0  0  0
   -6.1170   -7.0506    0.0000 C   0  0  0  0  0  0  0  0  0  0  0  0
   -4.6904   -6.5871    0.0000 O   0  0  0  0  0  0  0  0  0  0  0  0
   -4.3786   -5.1199    0.0000 C   0  0  0  0  0  0  0  0  0  0  0  0
   -2.9520   -4.6564    0.0000 C   0  0  0  0  0  0  0  0  0  0  0  0
   -1.8373   -5.6601    0.0000 N   0  0  0  0  0  0  0  0  0  0  0  0
   -2.6401   -3.1891    0.0000 C   0  0  0  0  0  0  0  0  0  0  0  0
   -1.2135   -2.7256    0.0000 C   0  0  0  0  0  0  0  0  0  0  0  0
   -0.0000   -3.6073    0.0000 C   0  0  0  0  0  0  0  0  0  0  0  0
    1.2135   -2.7256    0.0000 N   0  0  0  0  0  0  0  0  0  0  0  0
    0.7500   -1.2990    0.0000 C   0  0  0  0  0  0  0  0  0  0  0  0
    1.5000    0.0000    0.0000 C   0  0  0  0  0  0  0  0  0  0  0  0
    0.7500    1.2990    0.0000 C   0  0  0  0  0  0  0  0  0  0  0  0
   -0.7500    1.2990    0.0000 C   0  0  0  0  0  0  0  0  0  0  0  0
   -1.5000    0.0000    0.0000 C   0  0  0  0  0  0  0  0  0  0  0  0
   -0.7500   -1.2990    0.0000 C   0  0  0  0  0  0  0  0  0  0  0  0
   -7.2317   -6.0469    0.0000 C   0  0  0  0  0  0  0  0  0  0  0  0
   -8.6583   -6.5105    0.0000 C   0  0  0  0  0  0  0  0  0  0  0  0
   -9.7730   -5.5068    0.0000 C   0  0  0  0  0  0  0  0  0  0  0  0
  -11.1996   -5.9703    0.0000 C   0  0  0  0  0  0  0  0  0  0  0  0
  -12.3143   -4.9666    0.0000 N   0  0  0  0  0  0  0  0  0  0  0  0
  -12.0025   -3.4994    0.0000 C   0  0  0  0  0  0  0  0  0  0  0  0
  -12.8841   -2.2859    0.0000 N   0  0  0  0  0  0  0  0  0  0  0  0
  -12.0025   -1.0723    0.0000 N   0  0  0  0  0  0  0  0  0  0  0  0
  -10.5759   -1.5359    0.0000 C   0  0  0  0  0  0  0  0  0  0  0  0
   -9.3624   -0.6542    0.0000 C   0  0  0  0  0  0  0  0  0  0  0  0
  -10.5759   -3.0359    0.0000 C   0  0  0  0  0  0  0  0  0  0  0  0
   -9.4612   -4.0396    0.0000 C   0  0  0  0  0  0  0  0  0  0  0  0
  1  2  1  0
  2  3  1  0
  3  4  1  0
  4  5  2  0
  5  6  1  0
  6  7  1  0
  7  8  2  0
  8  9  1  0
  9 10  1  0
  9 11  2  0
 11 12  1  0
 12 13  1  0
 13 14  1  0
 14 15  1  6
 14 16  1  0
 16 17  1  0
 17 18  2  0
 18 19  1  0
 19 20  1  0
 20 21  2  0
 21 22  1  0
 22 23  2  0
 23 24  1  0
 24 25  2  0
 11 26  1  0
 26 27  2  0
 27 28  1  0
 28 29  2  0
 29 30  1  0
 30 31  2  0
 31 32  1  0
 32 33  1  0
 33 34  2  0
 34 35  1  0
 34 36  1  0
 36 37  2  0
  6  2  2  0
 27  7  1  0
 37 28  1  0
 25 17  1  0
 36 31  1  0
 25 20  1  0
M  END
>  <Compound_ID>  (12) 
CHEMBL593375

>  <Active>  (12) 
1

>  <Smiles>  (12) 
Cc1occc1-c1nc(N)c(OC[C@@H](N)Cc2c[nH]c3ccccc23)cc1-c1cnc2[nH]nc(C)c2c1

>  <canonical_smi>  (12) 
Cc1occc1-c1nc(N)c(OC[C@@H](N)Cc2c[nH]c3ccccc23)cc1-c1cnc2[nH]nc(C)c2c1

>  <Set>  (12) 
G1 active

>  <Set_type>  (12) 
G1

>  <MW>  (12) 
493.57

>  <HBD>  (12) 
4

>  <HBA>  (12) 
7

>  <NRB>  (12) 
7

>  <NR>  (12) 
6

>  <NAR>  (12) 
6

>  <PSA>  (12) 
144.66

>  <Standard Type>  (12) 
nan

>  <Standard Relation>  (12) 
nan

>  <Standard Units>  (12) 
nan

>  <Standard Value>  (12) 
nan

>  <Assay ChEMBL ID>  (12) 
nan

>  <Assay Description>  (12) 
nan

>  <BAO Label>  (12) 
nan

$$$$

     RDKit          2D

 37 40  0  0  0  0  0  0  0  0999 V2000
   13.5574    8.6664    0.0000 C   0  0  0  0  0  0  0  0  0  0  0  0
   12.0741    8.8900    0.0000 N   0  0  0  0  0  0  0  0  0  0  0  0
   11.5261   10.2863    0.0000 C   0  0  0  0  0  0  0  0  0  0  0  0
   11.1389    7.7172    0.0000 C   0  0  0  0  0  0  0  0  0  0  0  0
   11.6869    6.3209    0.0000 C   0  0  0  0  0  0  0  0  0  0  0  0
   10.7517    5.1482    0.0000 C   0  0  0  0  0  0  0  0  0  0  0  0
    9.2684    5.3718    0.0000 C   0  0  0  0  0  0  0  0  0  0  0  0
    8.3332    4.1990    0.0000 O   0  0  0  0  0  0  0  0  0  0  0  0
    8.7204    6.7681    0.0000 C   0  0  0  0  0  0  0  0  0  0  0  0
    7.2372    6.9916    0.0000 C   0  0  0  0  0  0  0  0  0  0  0  0
    6.6892    8.3879    0.0000 O   0  0  0  0  0  0  0  0  0  0  0  0
    6.3019    5.8189    0.0000 C   0  0  0  0  0  0  0  0  0  0  0  0
    4.8187    6.0424    0.0000 C   0  0  0  0  0  0  0  0  0  0  0  0
    3.8835    4.8697    0.0000 C   0  0  0  0  0  0  0  0  0  0  0  0
    4.4315    3.4734    0.0000 C   0  0  0  0  0  0  0  0  0  0  0  0
    3.4962    2.3006    0.0000 C   0  0  0  0  0  0  0  0  0  0  0  0
    4.0442    0.9043    0.0000 O   0  0  0  0  0  0  0  0  0  0  0  0
    2.0130    2.5242    0.0000 N   0  0  0  0  0  0  0  0  0  0  0  0
    1.0777    1.3515    0.0000 C   0  0  0  0  0  0  0  0  0  0  0  0
    1.7286    0.0000    0.0000 C   0  0  0  0  0  0  0  0  0  0  0  0
    1.0777   -1.3515    0.0000 C   0  0  0  0  0  0  0  0  0  0  0  0
   -0.3846   -1.6852    0.0000 C   0  0  0  0  0  0  0  0  0  0  0  0
   -1.5574   -0.7500    0.0000 N   0  0  0  0  0  0  0  0  0  0  0  0
   -1.5574    0.7500    0.0000 C   0  0  0  0  0  0  0  0  0  0  0  0
   -0.3846    1.6852    0.0000 C   0  0  0  0  0  0  0  0  0  0  0  0
   -0.7184    3.1476    0.0000 N   0  0  0  0  0  0  0  0  0  0  0  0
   -2.1518    3.5898    0.0000 C   0  0  0  0  0  0  0  0  0  0  0  0
   -3.2514    2.5695    0.0000 O   0  0  0  0  0  0  0  0  0  0  0  0
   -2.4856    5.0522    0.0000 C   0  0  0  0  0  0  0  0  0  0  0  0
   -1.3860    6.0724    0.0000 C   0  0  0  0  0  0  0  0  0  0  0  0
   -1.7198    7.5348    0.0000 C   0  0  0  0  0  0  0  0  0  0  0  0
   -3.1531    7.9769    0.0000 N   0  0  0  0  0  0  0  0  0  0  0  0
   -4.2527    6.9567    0.0000 C   0  0  0  0  0  0  0  0  0  0  0  0
   -3.9189    5.4943    0.0000 C   0  0  0  0  0  0  0  0  0  0  0  0
    5.9147    3.2498    0.0000 C   0  0  0  0  0  0  0  0  0  0  0  0
    6.8499    4.4226    0.0000 C   0  0  0  0  0  0  0  0  0  0  0  0
    9.6556    7.9408    0.0000 C   0  0  0  0  0  0  0  0  0  0  0  0
  1  2  1  0
  2  3  1  0
  2  4  1  0
  4  5  2  0
  5  6  1  0
  6  7  2  0
  7  8  1  0
  7  9  1  0
  9 10  1  0
 10 11  2  0
 10 12  1  0
 12 13  2  0
 13 14  1  0
 14 15  2  0
 15 16  1  0
 16 17  2  0
 16 18  1  0
 19 18  1  6
 19 20  1  0
 20 21  1  0
 21 22  1  0
 22 23  1  0
 23 24  1  0
 24 25  1  0
 25 26  1  1
 26 27  1  0
 27 28  2  0
 27 29  1  0
 29 30  2  0
 30 31  1  0
 31 32  2  0
 32 33  1  0
 33 34  2  0
 15 35  1  0
 35 36  2  0
  9 37  2  0
 37  4  1  0
 36 12  1  0
 25 19  1  0
 34 29  1  0
M  END
>  <Compound_ID>  (13) 
CHEMBL536718

>  <Active>  (13) 
1

>  <Smiles>  (13) 
CN(C)c1ccc(O)c(C(=O)c2ccc(C(=O)N[C@@H]3CCCNC[C@H]3NC(=O)c3ccncc3)cc2)c1

>  <canonical_smi>  (13) 
CN(C)c1ccc(O)c(C(=O)c2ccc(C(=O)N[C@@H]3CCCNC[C@H]3NC(=O)c3ccncc3)cc2)c1

>  <Set>  (13) 
G1 active

>  <Set_type>  (13) 
G1

>  <MW>  (13) 
501.59

>  <HBD>  (13) 
4

>  <HBA>  (13) 
7

>  <NRB>  (13) 
7

>  <NR>  (13) 
4

>  <NAR>  (13) 
3

>  <PSA>  (13) 
123.66

>  <Standard Type>  (13) 
nan

>  <Standard Relation>  (13) 
nan

>  <Standard Units>  (13) 
nan

>  <Standard Value>  (13) 
nan

>  <Assay ChEMBL ID>  (13) 
nan

>  <Assay Description>  (13) 
nan

>  <BAO Label>  (13) 
nan

$$$$

     RDKit          2D

 28 32  0  0  0  0  0  0  0  0999 V2000
   -5.0365   -5.3981    0.0000 Cl  0  0  0  0  0  0  0  0  0  0  0  0
   -5.7407   -4.0737    0.0000 C   0  0  0  0  0  0  0  0  0  0  0  0
   -7.2398   -4.0213    0.0000 C   0  0  0  0  0  0  0  0  0  0  0  0
   -7.9440   -2.6969    0.0000 C   0  0  0  0  0  0  0  0  0  0  0  0
   -7.1491   -1.4248    0.0000 C   0  0  0  0  0  0  0  0  0  0  0  0
   -7.8533   -0.1004    0.0000 C   0  0  0  0  0  0  0  0  0  0  0  0
   -6.4268    0.3631    0.0000 C   0  0  0  0  0  0  0  0  0  0  0  0
   -5.3120   -0.6406    0.0000 C   0  0  0  0  0  0  0  0  0  0  0  0
   -3.8855   -0.1771    0.0000 C   0  0  0  0  0  0  0  0  0  0  0  0
   -3.5736    1.2902    0.0000 C   0  0  0  0  0  0  0  0  0  0  0  0
   -2.1470    1.7537    0.0000 C   0  0  0  0  0  0  0  0  0  0  0  0
   -1.8351    3.2209    0.0000 N   0  0  0  0  0  0  0  0  0  0  0  0
   -0.4086    3.6844    0.0000 C   0  0  0  0  0  0  0  0  0  0  0  0
    0.7062    2.6807    0.0000 N   0  0  0  0  0  0  0  0  0  0  0  0
    0.3943    1.2135    0.0000 C   0  0  0  0  0  0  0  0  0  0  0  0
    1.2760    0.0000    0.0000 N   0  0  0  0  0  0  0  0  0  0  0  0
    0.3943   -1.2135    0.0000 C   0  0  0  0  0  0  0  0  0  0  0  0
   -1.0323   -0.7500    0.0000 N   0  0  0  0  0  0  0  0  0  0  0  0
   -1.0323    0.7500    0.0000 C   0  0  0  0  0  0  0  0  0  0  0  0
   -4.6883    2.2939    0.0000 C   0  0  0  0  0  0  0  0  0  0  0  0
   -6.1149    1.8303    0.0000 C   0  0  0  0  0  0  0  0  0  0  0  0
   -8.0621    1.3850    0.0000 C   0  0  0  0  0  0  0  0  0  0  0  0
   -9.4529    1.9469    0.0000 C   0  0  0  0  0  0  0  0  0  0  0  0
  -10.6349    1.0234    0.0000 N   0  0  0  0  0  0  0  0  0  0  0  0
  -10.4261   -0.4620    0.0000 C   0  0  0  0  0  0  0  0  0  0  0  0
   -9.0354   -1.0239    0.0000 C   0  0  0  0  0  0  0  0  0  0  0  0
   -5.6500   -1.4772    0.0000 C   0  0  0  0  0  0  0  0  0  0  0  0
   -4.9458   -2.8016    0.0000 C   0  0  0  0  0  0  0  0  0  0  0  0
  1  2  1  0
  2  3  2  0
  3  4  1  0
  4  5  2  0
  5  6  1  0
  6  7  1  0
  7  8  2  0
  8  9  1  0
  9 10  2  0
 10 11  1  0
 11 12  2  0
 12 13  1  0
 13 14  2  0
 14 15  1  0
 15 16  1  0
 16 17  1  0
 17 18  2  0
 18 19  1  0
 10 20  1  0
 20 21  2  0
  6 22  1  0
 22 23  1  0
 23 24  1  0
 24 25  1  0
 25 26  1  0
  5 27  1  0
 27 28  2  0
 28  2  1  0
 26  6  1  0
 21  7  1  0
 19 11  1  0
 19 15  2  0
M  END
>  <Compound_ID>  (14) 
CHEMBL228133

>  <Active>  (14) 
1

>  <Smiles>  (14) 
Clc1ccc(C2(c3ccc(-c4ncnc5[nH]cnc45)cc3)CCNCC2)cc1

>  <canonical_smi>  (14) 
Clc1ccc(C2(c3ccc(-c4ncnc5[nH]cnc45)cc3)CCNCC2)cc1

>  <Set>  (14) 
G1 active

>  <Set_type>  (14) 
G1

>  <MW>  (14) 
389.89

>  <HBD>  (14) 
2

>  <HBA>  (14) 
4

>  <NRB>  (14) 
3

>  <NR>  (14) 
5

>  <NAR>  (14) 
4

>  <PSA>  (14) 
66.49

>  <Standard Type>  (14) 
nan

>  <Standard Relation>  (14) 
nan

>  <Standard Units>  (14) 
nan

>  <Standard Value>  (14) 
nan

>  <Assay ChEMBL ID>  (14) 
nan

>  <Assay Description>  (14) 
nan

>  <BAO Label>  (14) 
nan

$$$$

     RDKit          2D

 33 36  0  0  0  0  0  0  0  0999 V2000
   -3.7548   -2.1855    0.0000 C   0  0  0  0  0  0  0  0  0  0  0  0
   -2.6401   -3.1891    0.0000 C   0  0  0  0  0  0  0  0  0  0  0  0
   -1.2135   -2.7256    0.0000 N   0  0  0  0  0  0  0  0  0  0  0  0
   -0.0000   -3.6073    0.0000 C   0  0  0  0  0  0  0  0  0  0  0  0
   -0.0000   -5.1073    0.0000 C   0  0  0  0  0  0  0  0  0  0  0  0
    1.2135   -5.9890    0.0000 N   0  0  0  0  0  0  0  0  0  0  0  0
    0.7500   -7.4156    0.0000 O   0  0  0  0  0  0  0  0  0  0  0  0
   -0.7500   -7.4156    0.0000 N   0  0  0  0  0  0  0  0  0  0  0  0
   -1.2135   -5.9890    0.0000 C   0  0  0  0  0  0  0  0  0  0  0  0
   -2.6401   -5.5255    0.0000 N   0  0  0  0  0  0  0  0  0  0  0  0
    1.2135   -2.7256    0.0000 N   0  0  0  0  0  0  0  0  0  0  0  0
    0.7500   -1.2990    0.0000 C   0  0  0  0  0  0  0  0  0  0  0  0
    1.5000    0.0000    0.0000 C   0  0  0  0  0  0  0  0  0  0  0  0
    3.0000    0.0000    0.0000 C   0  0  0  0  0  0  0  0  0  0  0  0
    4.5000    0.0000    0.0000 C   0  0  0  0  0  0  0  0  0  0  0  0
    6.0000    0.0000    0.0000 C   0  0  0  0  0  0  0  0  0  0  0  0
    6.0000   -1.5000    0.0000 C   0  0  0  0  0  0  0  0  0  0  0  0
    6.0000    1.5000    0.0000 C   0  0  0  0  0  0  0  0  0  0  0  0
    7.5000    0.0000    0.0000 O   0  0  0  0  0  0  0  0  0  0  0  0
    0.7500    1.2990    0.0000 N   0  0  0  0  0  0  0  0  0  0  0  0
   -0.7500    1.2990    0.0000 C   0  0  0  0  0  0  0  0  0  0  0  0
   -1.5000    2.5981    0.0000 O   0  0  0  0  0  0  0  0  0  0  0  0
   -0.7500    3.8971    0.0000 C   0  0  0  0  0  0  0  0  0  0  0  0
   -1.5000    5.1962    0.0000 C   0  0  0  0  0  0  0  0  0  0  0  0
   -3.0000    5.1962    0.0000 N   0  0  0  0  0  0  0  0  0  0  0  0
   -0.7500    6.4952    0.0000 C   0  0  0  0  0  0  0  0  0  0  0  0
    0.7500    6.4952    0.0000 C   0  0  0  0  0  0  0  0  0  0  0  0
    1.5000    7.7942    0.0000 C   0  0  0  0  0  0  0  0  0  0  0  0
    0.7500    9.0933    0.0000 C   0  0  0  0  0  0  0  0  0  0  0  0
   -0.7500    9.0933    0.0000 C   0  0  0  0  0  0  0  0  0  0  0  0
   -1.5000    7.7942    0.0000 C   0  0  0  0  0  0  0  0  0  0  0  0
   -1.5000    0.0000    0.0000 C   0  0  0  0  0  0  0  0  0  0  0  0
   -0.7500   -1.2990    0.0000 C   0  0  0  0  0  0  0  0  0  0  0  0
  1  2  1  0
  2  3  1  0
  3  4  1  0
  4  5  1  0
  5  6  2  0
  6  7  1  0
  7  8  1  0
  8  9  2  0
  9 10  1  0
  4 11  2  0
 11 12  1  0
 12 13  2  0
 13 14  1  0
 14 15  3  0
 15 16  1  0
 16 17  1  0
 16 18  1  0
 16 19  1  0
 13 20  1  0
 20 21  2  0
 21 22  1  0
 22 23  1  0
 23 24  1  0
 24 25  1  6
 24 26  1  0
 26 27  2  0
 27 28  1  0
 28 29  2  0
 29 30  1  0
 30 31  2  0
 21 32  1  0
 32 33  2  0
 33  3  1  0
  9  5  1  0
 33 12  1  0
 31 26  1  0
M  END
>  <Compound_ID>  (15) 
CHEMBL1096634

>  <Active>  (15) 
1

>  <Smiles>  (15) 
CCn1c(-c2nonc2N)nc2c(C#CC(C)(C)O)nc(OC[C@H](N)c3ccccc3)cc21

>  <canonical_smi>  (15) 
CCn1c(-c2nonc2N)nc2c(C#CC(C)(C)O)nc(OC[C@H](N)c3ccccc3)cc21

>  <Set>  (15) 
G1 active

>  <Set_type>  (15) 
G1

>  <MW>  (15) 
447.5

>  <HBD>  (15) 
3

>  <HBA>  (15) 
9

>  <NRB>  (15) 
6

>  <NR>  (15) 
4

>  <NAR>  (15) 
4

>  <PSA>  (15) 
151.13

>  <Standard Type>  (15) 
nan

>  <Standard Relation>  (15) 
nan

>  <Standard Units>  (15) 
nan

>  <Standard Value>  (15) 
nan

>  <Assay ChEMBL ID>  (15) 
nan

>  <Assay Description>  (15) 
nan

>  <BAO Label>  (15) 
nan

$$$$

     RDKit          2D

 28 30  0  0  0  0  0  0  0  0999 V2000
    3.7500   -1.2990    0.0000 C   0  0  0  0  0  0  0  0  0  0  0  0
    3.0000    0.0000    0.0000 N   0  0  0  0  0  0  0  0  0  0  0  0
    1.5000    0.0000    0.0000 C   0  0  0  0  0  0  0  0  0  0  0  0
    0.7500   -1.2990    0.0000 N   0  0  0  0  0  0  0  0  0  0  0  0
   -0.7500   -1.2990    0.0000 C   0  0  0  0  0  0  0  0  0  0  0  0
   -1.5000    0.0000    0.0000 C   0  0  0  0  0  0  0  0  0  0  0  0
   -0.7500    1.2990    0.0000 C   0  0  0  0  0  0  0  0  0  0  0  0
   -1.5000    2.5981    0.0000 C   0  0  0  0  0  0  0  0  0  0  0  0
   -2.9918    2.7549    0.0000 C   0  0  0  0  0  0  0  0  0  0  0  0
   -3.3037    4.2221    0.0000 C   0  0  0  0  0  0  0  0  0  0  0  0
   -2.0046    4.9721    0.0000 C   0  0  0  0  0  0  0  0  0  0  0  0
   -1.8478    6.4639    0.0000 C   0  0  0  0  0  0  0  0  0  0  0  0
   -3.0613    7.3456    0.0000 O   0  0  0  0  0  0  0  0  0  0  0  0
   -0.4775    7.0740    0.0000 N   0  0  0  0  0  0  0  0  0  0  0  0
   -0.3207    8.5658    0.0000 C   0  0  0  0  0  0  0  0  0  0  0  0
   -1.5342    9.4474    0.0000 C   0  0  0  0  0  0  0  0  0  0  0  0
   -1.3774   10.9392    0.0000 N   0  0  0  0  0  0  0  0  0  0  0  0
    1.0496    9.1759    0.0000 C   0  0  0  0  0  0  0  0  0  0  0  0
    1.2064   10.6676    0.0000 C   0  0  0  0  0  0  0  0  0  0  0  0
   -0.0071   11.5493    0.0000 C   0  0  0  0  0  0  0  0  0  0  0  0
    0.1497   13.0411    0.0000 C   0  0  0  0  0  0  0  0  0  0  0  0
    1.5200   13.6512    0.0000 C   0  0  0  0  0  0  0  0  0  0  0  0
    1.6768   15.1430    0.0000 Cl  0  0  0  0  0  0  0  0  0  0  0  0
    2.7335   12.7695    0.0000 C   0  0  0  0  0  0  0  0  0  0  0  0
    2.5767   11.2778    0.0000 C   0  0  0  0  0  0  0  0  0  0  0  0
    3.7902   10.3961    0.0000 Cl  0  0  0  0  0  0  0  0  0  0  0  0
   -0.8899    3.9684    0.0000 S   0  0  0  0  0  0  0  0  0  0  0  0
    0.7500    1.2990    0.0000 N   0  0  0  0  0  0  0  0  0  0  0  0
  1  2  1  0
  2  3  1  0
  3  4  2  0
  4  5  1  0
  5  6  2  0
  6  7  1  0
  7  8  1  0
  8  9  2  0
  9 10  1  0
 10 11  2  0
 11 12  1  0
 12 13  2  0
 12 14  1  0
 14 15  1  0
 15 16  1  6
 16 17  1  0
 15 18  1  0
 18 19  1  0
 19 20  2  0
 20 21  1  0
 21 22  2  0
 22 23  1  0
 22 24  1  0
 24 25  2  0
 25 26  1  0
 11 27  1  0
  7 28  2  0
 28  3  1  0
 27  8  1  0
 25 19  1  0
M  END
>  <Compound_ID>  (16) 
CHEMBL213618

>  <Active>  (16) 
1

>  <Smiles>  (16) 
CNc1nccc(-c2ccc(C(=O)N[C@H](CN)Cc3ccc(Cl)cc3Cl)s2)n1

>  <canonical_smi>  (16) 
CNc1nccc(-c2ccc(C(=O)N[C@H](CN)Cc3ccc(Cl)cc3Cl)s2)n1

>  <Set>  (16) 
G1 active

>  <Set_type>  (16) 
G1

>  <MW>  (16) 
436.37

>  <HBD>  (16) 
3

>  <HBA>  (16) 
5

>  <NRB>  (16) 
7

>  <NR>  (16) 
3

>  <NAR>  (16) 
3

>  <PSA>  (16) 
92.93

>  <Standard Type>  (16) 
nan

>  <Standard Relation>  (16) 
nan

>  <Standard Units>  (16) 
nan

>  <Standard Value>  (16) 
nan

>  <Assay ChEMBL ID>  (16) 
nan

>  <Assay Description>  (16) 
nan

>  <BAO Label>  (16) 
nan

$$$$

     RDKit          2D

 27 31  0  0  0  0  0  0  0  0999 V2000
   -2.3405   -4.4101    0.0000 N   0  0  0  0  0  0  0  0  0  0  0  0
   -3.7500   -3.8971    0.0000 C   0  0  0  0  0  0  0  0  0  0  0  0
   -3.0000   -2.5981    0.0000 C   0  0  0  0  0  0  0  0  0  0  0  0
   -1.5000   -2.5981    0.0000 C   0  0  0  0  0  0  0  0  0  0  0  0
   -0.7500   -3.8971    0.0000 C   0  0  0  0  0  0  0  0  0  0  0  0
    0.7500   -3.8971    0.0000 C   0  0  0  0  0  0  0  0  0  0  0  0
    1.5000   -2.5981    0.0000 C   0  0  0  0  0  0  0  0  0  0  0  0
    0.7500   -1.2990    0.0000 C   0  0  0  0  0  0  0  0  0  0  0  0
    1.5000    0.0000    0.0000 C   0  0  0  0  0  0  0  0  0  0  0  0
    0.7500    1.2990    0.0000 C   0  0  0  0  0  0  0  0  0  0  0  0
   -0.7500    1.2990    0.0000 C   0  0  0  0  0  0  0  0  0  0  0  0
   -1.5000    0.0000    0.0000 C   0  0  0  0  0  0  0  0  0  0  0  0
   -0.7500   -1.2990    0.0000 C   0  0  0  0  0  0  0  0  0  0  0  0
   -4.8991   -2.9329    0.0000 C   0  0  0  0  0  0  0  0  0  0  0  0
   -6.3086   -3.4460    0.0000 C   0  0  0  0  0  0  0  0  0  0  0  0
   -6.5691   -4.9232    0.0000 N   0  0  0  0  0  0  0  0  0  0  0  0
   -7.9786   -5.4362    0.0000 C   0  0  0  0  0  0  0  0  0  0  0  0
   -9.1277   -4.4720    0.0000 N   0  0  0  0  0  0  0  0  0  0  0  0
  -10.5372   -4.9851    0.0000 C   0  0  0  0  0  0  0  0  0  0  0  0
  -10.7977   -6.4623    0.0000 N   0  0  0  0  0  0  0  0  0  0  0  0
   -9.6486   -7.4264    0.0000 C   0  0  0  0  0  0  0  0  0  0  0  0
   -9.5963   -8.9255    0.0000 N   0  0  0  0  0  0  0  0  0  0  0  0
   -8.1544   -9.3390    0.0000 C   0  0  0  0  0  0  0  0  0  0  0  0
   -7.3156   -8.0954    0.0000 C   0  0  0  0  0  0  0  0  0  0  0  0
   -8.2391   -6.9134    0.0000 C   0  0  0  0  0  0  0  0  0  0  0  0
   -5.4200   -5.8874    0.0000 C   0  0  0  0  0  0  0  0  0  0  0  0
   -4.0105   -5.3743    0.0000 C   0  0  0  0  0  0  0  0  0  0  0  0
  1  2  1  0
  2  3  1  0
  3  4  1  0
  4  5  2  0
  5  6  1  0
  6  7  2  0
  7  8  1  0
  8  9  2  0
  9 10  1  0
 10 11  2  0
 11 12  1  0
 12 13  2  0
  2 14  1  0
 14 15  1  0
 15 16  1  0
 16 17  1  0
 17 18  2  0
 18 19  1  0
 19 20  2  0
 20 21  1  0
 21 22  1  0
 22 23  1  0
 23 24  2  0
 24 25  1  0
 16 26  1  0
 26 27  1  0
 27  2  1  0
 13  4  1  0
 25 17  1  0
 13  8  1  0
 25 21  2  0
M  END
>  <Compound_ID>  (17) 
CHEMBL598448

>  <Active>  (17) 
1

>  <Smiles>  (17) 
NC1(Cc2cccc3ccccc23)CCN(c2ncnc3[nH]ccc23)CC1

>  <canonical_smi>  (17) 
NC1(Cc2cccc3ccccc23)CCN(c2ncnc3[nH]ccc23)CC1

>  <Set>  (17) 
G1 active

>  <Set_type>  (17) 
G1

>  <MW>  (17) 
357.46

>  <HBD>  (17) 
2

>  <HBA>  (17) 
4

>  <NRB>  (17) 
3

>  <NR>  (17) 
5

>  <NAR>  (17) 
4

>  <PSA>  (17) 
70.83

>  <Standard Type>  (17) 
nan

>  <Standard Relation>  (17) 
nan

>  <Standard Units>  (17) 
nan

>  <Standard Value>  (17) 
nan

>  <Assay ChEMBL ID>  (17) 
nan

>  <Assay Description>  (17) 
nan

>  <BAO Label>  (17) 
nan

$$$$

     RDKit          2D

 31 34  0  0  0  0  0  0  0  0999 V2000
    5.2500   -1.2990    0.0000 N   0  0  0  0  0  0  0  0  0  0  0  0
    3.7500   -1.2990    0.0000 C   0  0  0  0  0  0  0  0  0  0  0  0
    3.0000   -2.5981    0.0000 O   0  0  0  0  0  0  0  0  0  0  0  0
    3.0000    0.0000    0.0000 N   0  0  0  0  0  0  0  0  0  0  0  0
    1.5000    0.0000    0.0000 C   0  0  0  0  0  0  0  0  0  0  0  0
    0.7500   -1.2990    0.0000 C   0  0  0  0  0  0  0  0  0  0  0  0
   -0.7500   -1.2990    0.0000 C   0  0  0  0  0  0  0  0  0  0  0  0
   -1.5000    0.0000    0.0000 C   0  0  0  0  0  0  0  0  0  0  0  0
   -0.7500    1.2990    0.0000 C   0  0  0  0  0  0  0  0  0  0  0  0
    0.7500    1.2990    0.0000 C   0  0  0  0  0  0  0  0  0  0  0  0
   -1.7537    2.4138    0.0000 C   0  0  0  0  0  0  0  0  0  0  0  0
   -1.4418    3.8810    0.0000 C   0  0  0  0  0  0  0  0  0  0  0  0
   -2.5565    4.8847    0.0000 C   0  0  0  0  0  0  0  0  0  0  0  0
   -4.0238    4.5728    0.0000 C   0  0  0  0  0  0  0  0  0  0  0  0
   -4.7738    5.8718    0.0000 C   0  0  0  0  0  0  0  0  0  0  0  0
   -6.2655    6.0286    0.0000 C   0  0  0  0  0  0  0  0  0  0  0  0
   -7.1472    4.8151    0.0000 O   0  0  0  0  0  0  0  0  0  0  0  0
   -6.8757    7.3990    0.0000 N   0  0  0  0  0  0  0  0  0  0  0  0
   -8.3674    7.5557    0.0000 C   0  0  0  0  0  0  0  0  0  0  0  0
   -8.9775    8.9261    0.0000 C   0  0  0  0  0  0  0  0  0  0  0  0
  -10.4693    9.0829    0.0000 N   0  0  0  0  0  0  0  0  0  0  0  0
  -11.0794   10.4532    0.0000 C   0  0  0  0  0  0  0  0  0  0  0  0
  -12.5712   10.6100    0.0000 C   0  0  0  0  0  0  0  0  0  0  0  0
  -13.4529    9.3964    0.0000 O   0  0  0  0  0  0  0  0  0  0  0  0
  -12.8428    8.0261    0.0000 C   0  0  0  0  0  0  0  0  0  0  0  0
  -11.3510    7.8693    0.0000 C   0  0  0  0  0  0  0  0  0  0  0  0
   -3.7701    6.9866    0.0000 C   0  0  0  0  0  0  0  0  0  0  0  0
   -2.3998    6.3765    0.0000 N   0  0  0  0  0  0  0  0  0  0  0  0
   -3.1240    1.8037    0.0000 C   0  0  0  0  0  0  0  0  0  0  0  0
   -4.4231    2.5537    0.0000 O   0  0  0  0  0  0  0  0  0  0  0  0
   -2.9672    0.3119    0.0000 N   0  0  0  0  0  0  0  0  0  0  0  0
  1  2  1  0
  2  3  2  0
  2  4  1  0
  4  5  1  0
  5  6  2  0
  6  7  1  0
  7  8  2  0
  8  9  1  0
  9 10  2  0
  9 11  1  0
 11 12  2  0
 12 13  1  0
 13 14  2  0
 14 15  1  0
 15 16  1  0
 16 17  2  0
 16 18  1  0
 18 19  1  0
 19 20  1  0
 20 21  1  0
 21 22  1  0
 22 23  1  0
 23 24  1  0
 24 25  1  0
 25 26  1  0
 15 27  2  0
 27 28  1  0
 11 29  1  0
 29 30  2  0
 29 31  1  0
 10  5  1  0
 28 13  1  0
 31  8  1  0
 26 21  1  0
M  END
>  <Compound_ID>  (18) 
CHEMBL388184

>  <Active>  (18) 
1

>  <Smiles>  (18) 
NC(=O)Nc1ccc2c(c1)/C(=C/c1cc(C(=O)NCCN3CCOCC3)c[nH]1)C(=O)N2

>  <canonical_smi>  (18) 
NC(=O)Nc1ccc2c(c1)/C(=C/c1cc(C(=O)NCCN3CCOCC3)c[nH]1)C(=O)N2

>  <Set>  (18) 
G1 active

>  <Set_type>  (18) 
G1

>  <MW>  (18) 
424.46

>  <HBD>  (18) 
5

>  <HBA>  (18) 
5

>  <NRB>  (18) 
6

>  <NR>  (18) 
4

>  <NAR>  (18) 
2

>  <PSA>  (18) 
141.58

>  <Standard Type>  (18) 
nan

>  <Standard Relation>  (18) 
nan

>  <Standard Units>  (18) 
nan

>  <Standard Value>  (18) 
nan

>  <Assay ChEMBL ID>  (18) 
nan

>  <Assay Description>  (18) 
nan

>  <BAO Label>  (18) 
nan

$$$$

     RDKit          2D

 35 40  0  0  0  0  0  0  0  0999 V2000
   -2.6401   -3.1891    0.0000 C   0  0  0  0  0  0  0  0  0  0  0  0
   -1.2135   -2.7256    0.0000 C   0  0  0  0  0  0  0  0  0  0  0  0
   -0.0000   -3.6073    0.0000 N   0  0  0  0  0  0  0  0  0  0  0  0
    1.2135   -2.7256    0.0000 N   0  0  0  0  0  0  0  0  0  0  0  0
    0.7500   -1.2990    0.0000 C   0  0  0  0  0  0  0  0  0  0  0  0
    1.5000    0.0000    0.0000 C   0  0  0  0  0  0  0  0  0  0  0  0
    0.7500    1.2990    0.0000 N   0  0  0  0  0  0  0  0  0  0  0  0
   -0.7500    1.2990    0.0000 C   0  0  0  0  0  0  0  0  0  0  0  0
   -1.5000    2.5981    0.0000 C   0  0  0  0  0  0  0  0  0  0  0  0
   -0.7500    3.8971    0.0000 C   0  0  0  0  0  0  0  0  0  0  0  0
   -1.5000    5.1962    0.0000 C   0  0  0  0  0  0  0  0  0  0  0  0
   -0.7500    6.4952    0.0000 O   0  0  0  0  0  0  0  0  0  0  0  0
    0.7500    6.4952    0.0000 C   0  0  0  0  0  0  0  0  0  0  0  0
    1.5000    7.7942    0.0000 C   0  0  0  0  0  0  0  0  0  0  0  0
    0.7500    9.0933    0.0000 N   0  0  0  0  0  0  0  0  0  0  0  0
    3.0000    7.7942    0.0000 C   0  0  0  0  0  0  0  0  0  0  0  0
    3.7500    9.0933    0.0000 C   0  0  0  0  0  0  0  0  0  0  0  0
    3.1399   10.4636    0.0000 C   0  0  0  0  0  0  0  0  0  0  0  0
    4.2546   11.4673    0.0000 N   0  0  0  0  0  0  0  0  0  0  0  0
    5.5537   10.7173    0.0000 C   0  0  0  0  0  0  0  0  0  0  0  0
    6.9802   11.1808    0.0000 C   0  0  0  0  0  0  0  0  0  0  0  0
    8.0950   10.1771    0.0000 C   0  0  0  0  0  0  0  0  0  0  0  0
    7.7831    8.7099    0.0000 C   0  0  0  0  0  0  0  0  0  0  0  0
    6.3565    8.2464    0.0000 C   0  0  0  0  0  0  0  0  0  0  0  0
    5.2418    9.2501    0.0000 C   0  0  0  0  0  0  0  0  0  0  0  0
   -3.0000    5.1962    0.0000 C   0  0  0  0  0  0  0  0  0  0  0  0
   -3.7500    3.8971    0.0000 N   0  0  0  0  0  0  0  0  0  0  0  0
   -3.0000    2.5981    0.0000 C   0  0  0  0  0  0  0  0  0  0  0  0
   -3.7500    1.2990    0.0000 C   0  0  0  0  0  0  0  0  0  0  0  0
   -3.1399   -0.0713    0.0000 C   0  0  0  0  0  0  0  0  0  0  0  0
   -4.2546   -1.0750    0.0000 C   0  0  0  0  0  0  0  0  0  0  0  0
   -5.5537   -0.3250    0.0000 O   0  0  0  0  0  0  0  0  0  0  0  0
   -5.2418    1.1422    0.0000 C   0  0  0  0  0  0  0  0  0  0  0  0
   -1.5000    0.0000    0.0000 N   0  0  0  0  0  0  0  0  0  0  0  0
   -0.7500   -1.2990    0.0000 C   0  0  0  0  0  0  0  0  0  0  0  0
  1  2  1  0
  2  3  2  0
  3  4  1  0
  4  5  1  0
  5  6  2  0
  6  7  1  0
  7  8  2  0
  8  9  1  0
  9 10  2  0
 10 11  1  0
 11 12  1  0
 12 13  1  0
 13 14  1  0
 14 15  1  1
 14 16  1  0
 16 17  1  0
 17 18  2  0
 18 19  1  0
 19 20  1  0
 20 21  2  0
 21 22  1  0
 22 23  2  0
 23 24  1  0
 24 25  2  0
 11 26  2  0
 26 27  1  0
 27 28  2  0
 28 29  1  0
 29 30  1  0
 30 31  2  0
 31 32  1  0
 32 33  1  0
  8 34  1  0
 34 35  2  0
 35  2  1  0
 35  5  1  0
 28  9  1  0
 33 29  2  0
 25 17  1  0
 25 20  1  0
M  END
>  <Compound_ID>  (19) 
CHEMBL603197

>  <Active>  (19) 
1

>  <Smiles>  (19) 
Cc1n[nH]c2cnc(-c3cc(OC[C@@H](N)Cc4c[nH]c5ccccc45)cnc3-c3ccoc3)nc12

>  <canonical_smi>  (19) 
Cc1n[nH]c2cnc(-c3cc(OC[C@@H](N)Cc4c[nH]c5ccccc45)cnc3-c3ccoc3)nc12

>  <Set>  (19) 
G1 active

>  <Set_type>  (19) 
G1

>  <MW>  (19) 
465.52

>  <HBD>  (19) 
3

>  <HBA>  (19) 
7

>  <NRB>  (19) 
7

>  <NR>  (19) 
6

>  <NAR>  (19) 
6

>  <PSA>  (19) 
131.53

>  <Standard Type>  (19) 
nan

>  <Standard Relation>  (19) 
nan

>  <Standard Units>  (19) 
nan

>  <Standard Value>  (19) 
nan

>  <Assay ChEMBL ID>  (19) 
nan

>  <Assay Description>  (19) 
nan

>  <BAO Label>  (19) 
nan

$$$$

     RDKit          2D

 30 33  0  0  0  0  0  0  0  0999 V2000
   -7.4747  -10.5404    0.0000 C   0  0  0  0  0  0  0  0  0  0  0  0
   -6.3600  -11.5441    0.0000 N   0  0  0  0  0  0  0  0  0  0  0  0
   -6.6718  -13.0113    0.0000 C   0  0  0  0  0  0  0  0  0  0  0  0
   -4.9334  -11.0806    0.0000 C   0  0  0  0  0  0  0  0  0  0  0  0
   -3.7199  -11.9622    0.0000 C   0  0  0  0  0  0  0  0  0  0  0  0
   -2.5063  -11.0806    0.0000 C   0  0  0  0  0  0  0  0  0  0  0  0
   -2.9699   -9.6540    0.0000 N   0  0  0  0  0  0  0  0  0  0  0  0
   -2.0882   -8.4404    0.0000 C   0  0  0  0  0  0  0  0  0  0  0  0
   -0.5964   -8.5972    0.0000 O   0  0  0  0  0  0  0  0  0  0  0  0
   -2.6983   -7.0701    0.0000 C   0  0  0  0  0  0  0  0  0  0  0  0
   -4.1655   -6.7583    0.0000 C   0  0  0  0  0  0  0  0  0  0  0  0
   -4.3223   -5.2665    0.0000 N   0  0  0  0  0  0  0  0  0  0  0  0
   -2.9520   -4.6564    0.0000 C   0  0  0  0  0  0  0  0  0  0  0  0
   -2.6401   -3.1891    0.0000 C   0  0  0  0  0  0  0  0  0  0  0  0
   -1.2135   -2.7256    0.0000 C   0  0  0  0  0  0  0  0  0  0  0  0
   -0.0000   -3.6073    0.0000 C   0  0  0  0  0  0  0  0  0  0  0  0
    0.0000   -5.1073    0.0000 O   0  0  0  0  0  0  0  0  0  0  0  0
    1.2135   -2.7256    0.0000 N   0  0  0  0  0  0  0  0  0  0  0  0
    0.7500   -1.2990    0.0000 C   0  0  0  0  0  0  0  0  0  0  0  0
    1.5000    0.0000    0.0000 C   0  0  0  0  0  0  0  0  0  0  0  0
    0.7500    1.2990    0.0000 C   0  0  0  0  0  0  0  0  0  0  0  0
   -0.7500    1.2990    0.0000 C   0  0  0  0  0  0  0  0  0  0  0  0
   -1.5000    2.5981    0.0000 N   0  0  0  0  0  0  0  0  0  0  0  0
   -0.7500    3.8971    0.0000 C   0  0  0  0  0  0  0  0  0  0  0  0
   -1.5000    5.1962    0.0000 N   0  0  0  0  0  0  0  0  0  0  0  0
    0.7500    3.8971    0.0000 O   0  0  0  0  0  0  0  0  0  0  0  0
   -1.5000    0.0000    0.0000 C   0  0  0  0  0  0  0  0  0  0  0  0
   -0.7500   -1.2990    0.0000 C   0  0  0  0  0  0  0  0  0  0  0  0
   -1.9483   -5.7711    0.0000 C   0  0  0  0  0  0  0  0  0  0  0  0
   -4.4699   -9.6540    0.0000 C   0  0  0  0  0  0  0  0  0  0  0  0
  1  2  1  0
  2  3  1  0
  2  4  1  0
  4  5  1  0
  5  6  1  0
  6  7  1  0
  7  8  1  0
  8  9  2  0
  8 10  1  0
 10 11  2  0
 11 12  1  0
 12 13  1  0
 13 14  1  0
 14 15  2  0
 15 16  1  0
 16 17  2  0
 16 18  1  0
 18 19  1  0
 19 20  2  0
 20 21  1  0
 21 22  2  0
 22 23  1  0
 23 24  1  0
 24 25  1  0
 24 26  2  0
 22 27  1  0
 27 28  2  0
 13 29  2  0
  7 30  1  0
 30  4  1  0
 29 10  1  0
 28 15  1  0
 28 19  1  0
M  END
>  <Compound_ID>  (20) 
CHEMBL388395

>  <Active>  (20) 
1

>  <Smiles>  (20) 
CN(C)C1CCN(C(=O)c2c[nH]c(/C=C3\C(=O)Nc4ccc(NC(N)=O)cc43)c2)C1

>  <canonical_smi>  (20) 
CN(C)C1CCN(C(=O)c2c[nH]c(/C=C3\C(=O)Nc4ccc(NC(N)=O)cc43)c2)C1

>  <Set>  (20) 
G1 active

>  <Set_type>  (20) 
G1

>  <MW>  (20) 
408.46

>  <HBD>  (20) 
4

>  <HBA>  (20) 
4

>  <NRB>  (20) 
4

>  <NR>  (20) 
4

>  <NAR>  (20) 
2

>  <PSA>  (20) 
123.56

>  <Standard Type>  (20) 
nan

>  <Standard Relation>  (20) 
nan

>  <Standard Units>  (20) 
nan

>  <Standard Value>  (20) 
nan

>  <Assay ChEMBL ID>  (20) 
nan

>  <Assay Description>  (20) 
nan

>  <BAO Label>  (20) 
nan

$$$$

     RDKit          2D

 41 47  0  0  0  0  0  0  0  0999 V2000
    3.0000    0.0000    0.0000 O   0  0  0  0  0  0  0  0  0  0  0  0
    1.5000    0.0000    0.0000 C   0  0  0  0  0  0  0  0  0  0  0  0
    0.7500   -1.2990    0.0000 N   0  0  0  0  0  0  0  0  0  0  0  0
   -0.7500   -1.2990    0.0000 C   0  0  0  0  0  0  0  0  0  0  0  0
   -1.5000    0.0000    0.0000 C   0  0  0  0  0  0  0  0  0  0  0  0
   -0.7500    1.2990    0.0000 C   0  0  0  0  0  0  0  0  0  0  0  0
   -1.5000    2.5981    0.0000 N   0  0  0  0  0  0  0  0  0  0  0  0
   -0.7500    3.8971    0.0000 C   0  0  0  0  0  0  0  0  0  0  0  0
   -1.5000    5.1962    0.0000 C   0  0  0  0  0  0  0  0  0  0  0  0
   -0.7500    6.4952    0.0000 C   0  0  0  0  0  0  0  0  0  0  0  0
   -1.5000    7.7942    0.0000 C   0  0  0  0  0  0  0  0  0  0  0  0
   -3.0000    7.7942    0.0000 C   0  0  0  0  0  0  0  0  0  0  0  0
   -3.7500    9.0933    0.0000 C   0  0  0  0  0  0  0  0  0  0  0  0
   -3.0000   10.3923    0.0000 N   0  0  0  0  0  0  0  0  0  0  0  0
   -1.5000   10.3923    0.0000 C   0  0  0  0  0  0  0  0  0  0  0  0
   -0.7500   11.6913    0.0000 C   0  0  0  0  0  0  0  0  0  0  0  0
   -1.5000   12.9904    0.0000 C   0  0  0  0  0  0  0  0  0  0  0  0
   -0.7500   14.2894    0.0000 C   0  0  0  0  0  0  0  0  0  0  0  0
   -1.3601   15.6597    0.0000 N   0  0  0  0  0  0  0  0  0  0  0  0
   -0.2454   16.6634    0.0000 N   0  0  0  0  0  0  0  0  0  0  0  0
    1.0537   15.9134    0.0000 C   0  0  0  0  0  0  0  0  0  0  0  0
    2.4240   16.5235    0.0000 C   0  0  0  0  0  0  0  0  0  0  0  0
    3.6375   15.6419    0.0000 C   0  0  0  0  0  0  0  0  0  0  0  0
    5.0078   16.2520    0.0000 C   0  0  0  0  0  0  0  0  0  0  0  0
    5.1646   17.7437    0.0000 C   0  0  0  0  0  0  0  0  0  0  0  0
    3.9511   18.6254    0.0000 C   0  0  0  0  0  0  0  0  0  0  0  0
    2.5808   18.0153    0.0000 N   0  0  0  0  0  0  0  0  0  0  0  0
    0.7418   14.4462    0.0000 N   0  0  0  0  0  0  0  0  0  0  0  0
   -3.0000   12.9904    0.0000 C   0  0  0  0  0  0  0  0  0  0  0  0
   -3.7500   11.6913    0.0000 C   0  0  0  0  0  0  0  0  0  0  0  0
   -3.7500    6.4952    0.0000 C   0  0  0  0  0  0  0  0  0  0  0  0
   -3.0000    5.1962    0.0000 C   0  0  0  0  0  0  0  0  0  0  0  0
    0.7500    3.8971    0.0000 C   0  0  0  0  0  0  0  0  0  0  0  0
    1.5000    5.1962    0.0000 C   0  0  0  0  0  0  0  0  0  0  0  0
    3.0000    5.1962    0.0000 C   0  0  0  0  0  0  0  0  0  0  0  0
    3.7500    6.4952    0.0000 C   0  0  0  0  0  0  0  0  0  0  0  0
    3.0000    7.7942    0.0000 C   0  0  0  0  0  0  0  0  0  0  0  0
    1.5000    7.7942    0.0000 C   0  0  0  0  0  0  0  0  0  0  0  0
    0.7500    6.4952    0.0000 C   0  0  0  0  0  0  0  0  0  0  0  0
    1.5000    2.5981    0.0000 C   0  0  0  0  0  0  0  0  0  0  0  0
    0.7500    1.2990    0.0000 C   0  0  0  0  0  0  0  0  0  0  0  0
  1  2  2  0
  2  3  1  0
  3  4  2  0
  4  5  1  0
  5  6  2  0
  6  7  1  0
  7  8  2  0
  8  9  1  0
  9 10  2  0
 10 11  1  0
 11 12  2  0
 12 13  1  0
 13 14  1  0
 14 15  1  0
 15 16  1  0
 16 17  1  0
 17 18  1  0
 18 19  2  0
 19 20  1  0
 20 21  1  0
 21 22  1  0
 22 23  2  0
 23 24  1  0
 24 25  2  0
 25 26  1  0
 26 27  2  0
 21 28  2  0
 17 29  1  0
 29 30  1  0
 12 31  1  0
 31 32  2  0
  8 33  1  0
 33 34  1  0
 34 35  2  0
 35 36  1  0
 36 37  2  0
 37 38  1  0
 38 39  2  0
 33 40  2  0
 40 41  1  0
 41  2  1  0
 41  6  1  0
 32  9  1  0
 39 34  1  0
 30 14  1  0
 28 18  1  0
 27 22  1  0
M  END
>  <Compound_ID>  (21) 
CHEMBL262341

>  <Active>  (21) 
1

>  <Smiles>  (21) 
O=C1N=CC=C2N=C(c3ccc(CN4CCC(c5n[nH]c(-c6ccccn6)n5)CC4)cc3)C(c3ccccc3)=CC12

>  <canonical_smi>  (21) 
O=C1N=CC=C2N=C(c3ccc(CN4CCC(c5n[nH]c(-c6ccccn6)n5)CC4)cc3)C(c3ccccc3)=CC12

>  <Set>  (21) 
G1 active

>  <Set_type>  (21) 
G1

>  <MW>  (21) 
539.64

>  <HBD>  (21) 
1

>  <HBA>  (21) 
5

>  <NRB>  (21) 
6

>  <NR>  (21) 
7

>  <NAR>  (21) 
4

>  <PSA>  (21) 
99.49

>  <Standard Type>  (21) 
nan

>  <Standard Relation>  (21) 
nan

>  <Standard Units>  (21) 
nan

>  <Standard Value>  (21) 
nan

>  <Assay ChEMBL ID>  (21) 
nan

>  <Assay Description>  (21) 
nan

>  <BAO Label>  (21) 
nan

$$$$

     RDKit          2D

 41 47  0  0  0  0  0  0  0  0999 V2000
    3.0000    0.0000    0.0000 O   0  0  0  0  0  0  0  0  0  0  0  0
    1.5000    0.0000    0.0000 C   0  0  0  0  0  0  0  0  0  0  0  0
    0.7500   -1.2990    0.0000 N   0  0  0  0  0  0  0  0  0  0  0  0
   -0.7500   -1.2990    0.0000 C   0  0  0  0  0  0  0  0  0  0  0  0
   -1.5000    0.0000    0.0000 C   0  0  0  0  0  0  0  0  0  0  0  0
   -0.7500    1.2990    0.0000 C   0  0  0  0  0  0  0  0  0  0  0  0
   -1.5000    2.5981    0.0000 N   0  0  0  0  0  0  0  0  0  0  0  0
   -0.7500    3.8971    0.0000 C   0  0  0  0  0  0  0  0  0  0  0  0
   -1.5000    5.1962    0.0000 C   0  0  0  0  0  0  0  0  0  0  0  0
   -0.7500    6.4952    0.0000 C   0  0  0  0  0  0  0  0  0  0  0  0
   -1.5000    7.7942    0.0000 C   0  0  0  0  0  0  0  0  0  0  0  0
   -3.0000    7.7942    0.0000 C   0  0  0  0  0  0  0  0  0  0  0  0
   -3.7500    9.0933    0.0000 C   0  0  0  0  0  0  0  0  0  0  0  0
   -3.0000   10.3923    0.0000 N   0  0  0  0  0  0  0  0  0  0  0  0
   -1.5000   10.3923    0.0000 C   0  0  0  0  0  0  0  0  0  0  0  0
   -0.7500   11.6913    0.0000 C   0  0  0  0  0  0  0  0  0  0  0  0
   -1.5000   12.9904    0.0000 C   0  0  0  0  0  0  0  0  0  0  0  0
   -0.7500   14.2894    0.0000 C   0  0  0  0  0  0  0  0  0  0  0  0
   -1.3601   15.6597    0.0000 N   0  0  0  0  0  0  0  0  0  0  0  0
   -0.2454   16.6634    0.0000 N   0  0  0  0  0  0  0  0  0  0  0  0
    1.0537   15.9134    0.0000 C   0  0  0  0  0  0  0  0  0  0  0  0
    2.4240   16.5235    0.0000 C   0  0  0  0  0  0  0  0  0  0  0  0
    3.6375   15.6419    0.0000 N   0  0  0  0  0  0  0  0  0  0  0  0
    5.0078   16.2520    0.0000 C   0  0  0  0  0  0  0  0  0  0  0  0
    5.1646   17.7437    0.0000 C   0  0  0  0  0  0  0  0  0  0  0  0
    3.9511   18.6254    0.0000 C   0  0  0  0  0  0  0  0  0  0  0  0
    2.5808   18.0153    0.0000 N   0  0  0  0  0  0  0  0  0  0  0  0
    0.7418   14.4462    0.0000 N   0  0  0  0  0  0  0  0  0  0  0  0
   -3.0000   12.9904    0.0000 C   0  0  0  0  0  0  0  0  0  0  0  0
   -3.7500   11.6913    0.0000 C   0  0  0  0  0  0  0  0  0  0  0  0
   -3.7500    6.4952    0.0000 C   0  0  0  0  0  0  0  0  0  0  0  0
   -3.0000    5.1962    0.0000 C   0  0  0  0  0  0  0  0  0  0  0  0
    0.7500    3.8971    0.0000 C   0  0  0  0  0  0  0  0  0  0  0  0
    1.5000    5.1962    0.0000 C   0  0  0  0  0  0  0  0  0  0  0  0
    3.0000    5.1962    0.0000 C   0  0  0  0  0  0  0  0  0  0  0  0
    3.7500    6.4952    0.0000 C   0  0  0  0  0  0  0  0  0  0  0  0
    3.0000    7.7942    0.0000 C   0  0  0  0  0  0  0  0  0  0  0  0
    1.5000    7.7942    0.0000 C   0  0  0  0  0  0  0  0  0  0  0  0
    0.7500    6.4952    0.0000 C   0  0  0  0  0  0  0  0  0  0  0  0
    1.5000    2.5981    0.0000 C   0  0  0  0  0  0  0  0  0  0  0  0
    0.7500    1.2990    0.0000 C   0  0  0  0  0  0  0  0  0  0  0  0
  1  2  2  0
  2  3  1  0
  3  4  1  0
  4  5  2  0
  5  6  1  0
  6  7  2  0
  7  8  1  0
  8  9  1  0
  9 10  2  0
 10 11  1  0
 11 12  2  0
 12 13  1  0
 13 14  1  0
 14 15  1  0
 15 16  1  0
 16 17  1  0
 17 18  1  0
 18 19  2  0
 19 20  1  0
 20 21  2  0
 21 22  1  0
 22 23  2  0
 23 24  1  0
 24 25  2  0
 25 26  1  0
 26 27  2  0
 21 28  1  0
 17 29  1  0
 29 30  1  0
 12 31  1  0
 31 32  2  0
  8 33  2  0
 33 34  1  0
 34 35  2  0
 35 36  1  0
 36 37  2  0
 37 38  1  0
 38 39  2  0
 33 40  1  0
 40 41  2  0
 41  2  1  0
 41  6  1  0
 32  9  1  0
 39 34  1  0
 30 14  1  0
 28 18  1  0
 27 22  1  0
M  END
>  <Compound_ID>  (22) 
CHEMBL447114

>  <Active>  (22) 
1

>  <Smiles>  (22) 
O=c1[nH]ccc2nc(-c3ccc(CN4CCC(c5nnc(-c6ncccn6)[nH]5)CC4)cc3)c(-c3ccccc3)cc12

>  <canonical_smi>  (22) 
O=c1[nH]ccc2nc(-c3ccc(CN4CCC(c5nnc(-c6ncccn6)[nH]5)CC4)cc3)c(-c3ccccc3)cc12

>  <Set>  (22) 
G1 active

>  <Set_type>  (22) 
G1

>  <MW>  (22) 
540.63

>  <HBD>  (22) 
2

>  <HBA>  (22) 
7

>  <NRB>  (22) 
6

>  <NR>  (22) 
7

>  <NAR>  (22) 
6

>  <PSA>  (22) 
116.34

>  <Standard Type>  (22) 
nan

>  <Standard Relation>  (22) 
nan

>  <Standard Units>  (22) 
nan

>  <Standard Value>  (22) 
nan

>  <Assay ChEMBL ID>  (22) 
nan

>  <Assay Description>  (22) 
nan

>  <BAO Label>  (22) 
nan

$$$$

     RDKit          2D

 26 29  0  0  0  0  0  0  0  0999 V2000
    2.7395   -6.6734    0.0000 N   0  0  0  0  0  0  0  0  0  0  0  0
    3.0000   -5.1962    0.0000 C   0  0  0  0  0  0  0  0  0  0  0  0
    4.4095   -5.7092    0.0000 C   0  0  0  0  0  0  0  0  0  0  0  0
    4.6700   -7.1864    0.0000 C   0  0  0  0  0  0  0  0  0  0  0  0
    3.5209   -8.1506    0.0000 C   0  0  0  0  0  0  0  0  0  0  0  0
    3.7814   -9.6278    0.0000 C   0  0  0  0  0  0  0  0  0  0  0  0
    5.1910  -10.1408    0.0000 C   0  0  0  0  0  0  0  0  0  0  0  0
    5.4514  -11.6180    0.0000 Cl  0  0  0  0  0  0  0  0  0  0  0  0
    6.3400   -9.1766    0.0000 C   0  0  0  0  0  0  0  0  0  0  0  0
    6.0796   -7.6994    0.0000 C   0  0  0  0  0  0  0  0  0  0  0  0
    7.2286   -6.7352    0.0000 Cl  0  0  0  0  0  0  0  0  0  0  0  0
    3.7500   -3.8971    0.0000 C   0  0  0  0  0  0  0  0  0  0  0  0
    3.0000   -2.5981    0.0000 C   0  0  0  0  0  0  0  0  0  0  0  0
    1.5000   -2.5981    0.0000 N   0  0  0  0  0  0  0  0  0  0  0  0
    0.7500   -1.2990    0.0000 C   0  0  0  0  0  0  0  0  0  0  0  0
    1.5000    0.0000    0.0000 N   0  0  0  0  0  0  0  0  0  0  0  0
    0.7500    1.2990    0.0000 C   0  0  0  0  0  0  0  0  0  0  0  0
   -0.7500    1.2990    0.0000 N   0  0  0  0  0  0  0  0  0  0  0  0
   -1.5000    0.0000    0.0000 C   0  0  0  0  0  0  0  0  0  0  0  0
   -2.9672   -0.3119    0.0000 N   0  0  0  0  0  0  0  0  0  0  0  0
   -3.1240   -1.8037    0.0000 C   0  0  0  0  0  0  0  0  0  0  0  0
   -4.4231   -2.5537    0.0000 O   0  0  0  0  0  0  0  0  0  0  0  0
   -1.7537   -2.4138    0.0000 N   0  0  0  0  0  0  0  0  0  0  0  0
   -0.7500   -1.2990    0.0000 C   0  0  0  0  0  0  0  0  0  0  0  0
    0.7500   -3.8971    0.0000 C   0  0  0  0  0  0  0  0  0  0  0  0
    1.5000   -5.1962    0.0000 C   0  0  0  0  0  0  0  0  0  0  0  0
  1  2  1  0
  2  3  1  0
  3  4  1  0
  4  5  2  0
  5  6  1  0
  6  7  2  0
  7  8  1  0
  7  9  1  0
  9 10  2  0
 10 11  1  0
  2 12  1  0
 12 13  1  0
 13 14  1  0
 14 15  1  0
 15 16  2  0
 16 17  1  0
 17 18  2  0
 18 19  1  0
 19 20  1  0
 20 21  1  0
 21 22  2  0
 21 23  1  0
 23 24  1  0
 14 25  1  0
 25 26  1  0
 26  2  1  0
 10  4  1  0
 24 15  1  0
 24 19  2  0
M  END
>  <Compound_ID>  (23) 
CHEMBL590957

>  <Active>  (23) 
1

>  <Smiles>  (23) 
NC1(Cc2ccc(Cl)cc2Cl)CCN(c2ncnc3[nH]c(=O)[nH]c23)CC1

>  <canonical_smi>  (23) 
NC1(Cc2ccc(Cl)cc2Cl)CCN(c2ncnc3[nH]c(=O)[nH]c23)CC1

>  <Set>  (23) 
G1 active

>  <Set_type>  (23) 
G1

>  <MW>  (23) 
393.28

>  <HBD>  (23) 
3

>  <HBA>  (23) 
5

>  <NRB>  (23) 
3

>  <NR>  (23) 
4

>  <NAR>  (23) 
3

>  <PSA>  (23) 
103.69

>  <Standard Type>  (23) 
nan

>  <Standard Relation>  (23) 
nan

>  <Standard Units>  (23) 
nan

>  <Standard Value>  (23) 
nan

>  <Assay ChEMBL ID>  (23) 
nan

>  <Assay Description>  (23) 
nan

>  <BAO Label>  (23) 
nan

$$$$

     RDKit          2D

 42 48  0  0  0  0  0  0  0  0999 V2000
    3.7500   -1.2990    0.0000 C   0  0  0  0  0  0  0  0  0  0  0  0
    3.0000    0.0000    0.0000 S   0  0  0  0  0  0  0  0  0  0  0  0
    1.5000    0.0000    0.0000 C   0  0  0  0  0  0  0  0  0  0  0  0
    0.7500   -1.2990    0.0000 N   0  0  0  0  0  0  0  0  0  0  0  0
   -0.7500   -1.2990    0.0000 C   0  0  0  0  0  0  0  0  0  0  0  0
   -1.5000    0.0000    0.0000 C   0  0  0  0  0  0  0  0  0  0  0  0
   -3.0000    0.0000    0.0000 C   0  0  0  0  0  0  0  0  0  0  0  0
   -3.7500    1.2990    0.0000 C   0  0  0  0  0  0  0  0  0  0  0  0
   -5.2500    1.2990    0.0000 C   0  0  0  0  0  0  0  0  0  0  0  0
   -6.0000    2.5981    0.0000 C   0  0  0  0  0  0  0  0  0  0  0  0
   -7.5000    2.5981    0.0000 C   0  0  0  0  0  0  0  0  0  0  0  0
   -8.2500    1.2990    0.0000 C   0  0  0  0  0  0  0  0  0  0  0  0
   -7.5000    0.0000    0.0000 C   0  0  0  0  0  0  0  0  0  0  0  0
   -6.0000    0.0000    0.0000 C   0  0  0  0  0  0  0  0  0  0  0  0
   -3.0000    2.5981    0.0000 C   0  0  0  0  0  0  0  0  0  0  0  0
   -3.7500    3.8971    0.0000 C   0  0  0  0  0  0  0  0  0  0  0  0
   -3.0000    5.1962    0.0000 C   0  0  0  0  0  0  0  0  0  0  0  0
   -3.7500    6.4952    0.0000 C   0  0  0  0  0  0  0  0  0  0  0  0
   -5.2500    6.4952    0.0000 C   0  0  0  0  0  0  0  0  0  0  0  0
   -6.0000    7.7942    0.0000 C   0  0  0  0  0  0  0  0  0  0  0  0
   -5.2500    9.0933    0.0000 N   0  0  0  0  0  0  0  0  0  0  0  0
   -3.7500    9.0933    0.0000 C   0  0  0  0  0  0  0  0  0  0  0  0
   -3.0000   10.3923    0.0000 C   0  0  0  0  0  0  0  0  0  0  0  0
   -3.7500   11.6913    0.0000 C   0  0  0  0  0  0  0  0  0  0  0  0
   -3.0000   12.9904    0.0000 C   0  0  0  0  0  0  0  0  0  0  0  0
   -3.6101   14.3607    0.0000 C   0  0  0  0  0  0  0  0  0  0  0  0
   -2.4954   15.3644    0.0000 C   0  0  0  0  0  0  0  0  0  0  0  0
   -2.6522   16.8562    0.0000 C   0  0  0  0  0  0  0  0  0  0  0  0
   -1.4387   17.7379    0.0000 C   0  0  0  0  0  0  0  0  0  0  0  0
   -1.5954   19.2296    0.0000 C   0  0  0  0  0  0  0  0  0  0  0  0
   -2.9658   19.8397    0.0000 N   0  0  0  0  0  0  0  0  0  0  0  0
   -4.1793   18.9581    0.0000 C   0  0  0  0  0  0  0  0  0  0  0  0
   -4.0225   17.4663    0.0000 C   0  0  0  0  0  0  0  0  0  0  0  0
   -1.1963   14.6144    0.0000 N   0  0  0  0  0  0  0  0  0  0  0  0
   -1.5082   13.1472    0.0000 N   0  0  0  0  0  0  0  0  0  0  0  0
   -5.2500   11.6913    0.0000 C   0  0  0  0  0  0  0  0  0  0  0  0
   -6.0000   10.3923    0.0000 C   0  0  0  0  0  0  0  0  0  0  0  0
   -6.0000    5.1962    0.0000 C   0  0  0  0  0  0  0  0  0  0  0  0
   -5.2500    3.8971    0.0000 C   0  0  0  0  0  0  0  0  0  0  0  0
   -1.5000    2.5981    0.0000 N   0  0  0  0  0  0  0  0  0  0  0  0
   -0.7500    1.2990    0.0000 C   0  0  0  0  0  0  0  0  0  0  0  0
    0.7500    1.2990    0.0000 N   0  0  0  0  0  0  0  0  0  0  0  0
  1  2  1  0
  2  3  1  0
  3  4  2  0
  4  5  1  0
  5  6  2  0
  6  7  1  0
  7  8  2  0
  8  9  1  0
  9 10  2  0
 10 11  1  0
 11 12  2  0
 12 13  1  0
 13 14  2  0
  8 15  1  0
 15 16  1  0
 16 17  2  0
 17 18  1  0
 18 19  2  0
 19 20  1  0
 20 21  1  0
 21 22  1  0
 22 23  1  0
 23 24  1  0
 24 25  1  0
 25 26  1  0
 26 27  2  0
 27 28  1  0
 28 29  2  0
 29 30  1  0
 30 31  2  0
 31 32  1  0
 32 33  2  0
 27 34  1  0
 34 35  1  0
 24 36  1  0
 36 37  1  0
 19 38  1  0
 38 39  2  0
 15 40  2  0
 40 41  1  0
 41 42  2  0
 42  3  1  0
 41  6  1  0
 14  9  1  0
 39 16  1  0
 37 21  1  0
 35 25  2  0
 33 28  1  0
M  END
>  <Compound_ID>  (24) 
CHEMBL404554

>  <Active>  (24) 
1

>  <Smiles>  (24) 
CSc1ncc2cc(-c3ccccc3)c(-c3ccc(CN4CCC(c5cc(-c6ccncc6)[nH]n5)CC4)cc3)nc2n1

>  <canonical_smi>  (24) 
CSc1ncc2cc(-c3ccccc3)c(-c3ccc(CN4CCC(c5cc(-c6ccncc6)[nH]n5)CC4)cc3)nc2n1

>  <Set>  (24) 
G1 active

>  <Set_type>  (24) 
G1

>  <MW>  (24) 
569.74

>  <HBD>  (24) 
1

>  <HBA>  (24) 
7

>  <NRB>  (24) 
7

>  <NR>  (24) 
7

>  <NAR>  (24) 
6

>  <PSA>  (24) 
83.48

>  <Standard Type>  (24) 
nan

>  <Standard Relation>  (24) 
nan

>  <Standard Units>  (24) 
nan

>  <Standard Value>  (24) 
nan

>  <Assay ChEMBL ID>  (24) 
nan

>  <Assay Description>  (24) 
nan

>  <BAO Label>  (24) 
nan

$$$$

     RDKit          2D

 45 52  0  0  0  0  0  0  0  0999 V2000
    3.0000   -7.7942    0.0000 C   0  0  0  0  0  0  0  0  0  0  0  0
    1.5000   -7.7942    0.0000 C   0  0  0  0  0  0  0  0  0  0  0  0
    0.7500   -6.4952    0.0000 C   0  0  0  0  0  0  0  0  0  0  0  0
    1.5000   -5.1962    0.0000 C   0  0  0  0  0  0  0  0  0  0  0  0
    0.7500   -3.8971    0.0000 C   0  0  0  0  0  0  0  0  0  0  0  0
    1.5000   -2.5981    0.0000 C   0  0  0  0  0  0  0  0  0  0  0  0
    0.7500   -1.2990    0.0000 C   0  0  0  0  0  0  0  0  0  0  0  0
    1.5000    0.0000    0.0000 C   0  0  0  0  0  0  0  0  0  0  0  0
    0.7500    1.2990    0.0000 N   0  0  0  0  0  0  0  0  0  0  0  0
   -0.7500    1.2990    0.0000 C   0  0  0  0  0  0  0  0  0  0  0  0
   -1.5000    2.5981    0.0000 N   0  0  0  0  0  0  0  0  0  0  0  0
   -2.9918    2.7549    0.0000 C   0  0  0  0  0  0  0  0  0  0  0  0
   -3.3037    4.2221    0.0000 C   0  0  0  0  0  0  0  0  0  0  0  0
   -2.0046    4.9721    0.0000 N   0  0  0  0  0  0  0  0  0  0  0  0
   -0.8899    3.9684    0.0000 C   0  0  0  0  0  0  0  0  0  0  0  0
   -1.5000    0.0000    0.0000 N   0  0  0  0  0  0  0  0  0  0  0  0
   -0.7500   -1.2990    0.0000 C   0  0  0  0  0  0  0  0  0  0  0  0
   -1.5000   -2.5981    0.0000 N   0  0  0  0  0  0  0  0  0  0  0  0
   -0.7500   -3.8971    0.0000 C   0  0  0  0  0  0  0  0  0  0  0  0
   -1.5000   -5.1962    0.0000 C   0  0  0  0  0  0  0  0  0  0  0  0
   -3.0000   -5.1962    0.0000 C   0  0  0  0  0  0  0  0  0  0  0  0
   -3.7500   -6.4952    0.0000 C   0  0  0  0  0  0  0  0  0  0  0  0
   -3.0000   -7.7942    0.0000 C   0  0  0  0  0  0  0  0  0  0  0  0
   -3.7500   -9.0933    0.0000 C   0  0  0  0  0  0  0  0  0  0  0  0
   -5.2500   -9.0933    0.0000 N   0  0  0  0  0  0  0  0  0  0  0  0
   -6.0000   -7.7942    0.0000 C   0  0  0  0  0  0  0  0  0  0  0  0
   -7.5000   -7.7942    0.0000 C   0  0  0  0  0  0  0  0  0  0  0  0
   -8.2500   -9.0933    0.0000 C   0  0  0  0  0  0  0  0  0  0  0  0
   -9.7500   -9.0933    0.0000 C   0  0  0  0  0  0  0  0  0  0  0  0
  -10.6317  -10.3068    0.0000 N   0  0  0  0  0  0  0  0  0  0  0  0
  -12.0583   -9.8433    0.0000 N   0  0  0  0  0  0  0  0  0  0  0  0
  -12.0583   -8.3433    0.0000 C   0  0  0  0  0  0  0  0  0  0  0  0
  -13.2718   -7.4616    0.0000 C   0  0  0  0  0  0  0  0  0  0  0  0
  -13.1150   -5.9698    0.0000 C   0  0  0  0  0  0  0  0  0  0  0  0
  -14.3285   -5.0881    0.0000 C   0  0  0  0  0  0  0  0  0  0  0  0
  -15.6988   -5.6982    0.0000 C   0  0  0  0  0  0  0  0  0  0  0  0
  -15.8556   -7.1900    0.0000 C   0  0  0  0  0  0  0  0  0  0  0  0
  -14.6421   -8.0717    0.0000 N   0  0  0  0  0  0  0  0  0  0  0  0
  -10.6317   -7.8797    0.0000 N   0  0  0  0  0  0  0  0  0  0  0  0
   -7.5000  -10.3923    0.0000 C   0  0  0  0  0  0  0  0  0  0  0  0
   -6.0000  -10.3923    0.0000 C   0  0  0  0  0  0  0  0  0  0  0  0
   -1.5000   -7.7942    0.0000 C   0  0  0  0  0  0  0  0  0  0  0  0
   -0.7500   -6.4952    0.0000 C   0  0  0  0  0  0  0  0  0  0  0  0
    3.0000   -5.1962    0.0000 C   0  0  0  0  0  0  0  0  0  0  0  0
    3.7500   -6.4952    0.0000 C   0  0  0  0  0  0  0  0  0  0  0  0
  1  2  2  0
  2  3  1  0
  3  4  2  0
  4  5  1  0
  5  6  2  0
  6  7  1  0
  7  8  2  0
  8  9  1  0
  9 10  2  0
 10 11  1  0
 11 12  1  0
 12 13  2  0
 13 14  1  0
 14 15  2  0
 10 16  1  0
 16 17  2  0
 17 18  1  0
 18 19  2  0
 19 20  1  0
 20 21  2  0
 21 22  1  0
 22 23  2  0
 23 24  1  0
 24 25  1  0
 25 26  1  0
 26 27  1  0
 27 28  1  0
 28 29  1  0
 29 30  2  0
 30 31  1  0
 31 32  2  0
 32 33  1  0
 33 34  2  0
 34 35  1  0
 35 36  2  0
 36 37  1  0
 37 38  2  0
 32 39  1  0
 28 40  1  0
 40 41  1  0
 23 42  1  0
 42 43  2  0
  4 44  1  0
 44 45  2  0
 45  1  1  0
 19  5  1  0
 43 20  1  0
 17  7  1  0
 41 25  1  0
 15 11  1  0
 39 29  1  0
 38 33  1  0
M  END
>  <Compound_ID>  (25) 
CHEMBL448926

>  <Active>  (25) 
1

>  <Smiles>  (25) 
c1ccc(-c2cc3cnc(-n4ccnc4)nc3nc2-c2ccc(CN3CCC(c4nnc(-c5ccccn5)[nH]4)CC3)cc2)cc1

>  <canonical_smi>  (25) 
c1ccc(-c2cc3cnc(-n4ccnc4)nc3nc2-c2ccc(CN3CCC(c4nnc(-c5ccccn5)[nH]4)CC3)cc2)cc1

>  <Set>  (25) 
G1 active

>  <Set_type>  (25) 
G1

>  <MW>  (25) 
590.7

>  <HBD>  (25) 
1

>  <HBA>  (25) 
8

>  <NRB>  (25) 
7

>  <NR>  (25) 
8

>  <NAR>  (25) 
7

>  <PSA>  (25) 
114.19

>  <Standard Type>  (25) 
nan

>  <Standard Relation>  (25) 
nan

>  <Standard Units>  (25) 
nan

>  <Standard Value>  (25) 
nan

>  <Assay ChEMBL ID>  (25) 
nan

>  <Assay Description>  (25) 
nan

>  <BAO Label>  (25) 
nan

$$$$

     RDKit          2D

 27 30  0  0  0  0  0  0  0  0999 V2000
   -9.0638   -4.9905    0.0000 N   0  0  0  0  0  0  0  0  0  0  0  0
   -8.1821   -3.7770    0.0000 C   0  0  0  0  0  0  0  0  0  0  0  0
   -8.7923   -2.4067    0.0000 C   0  0  0  0  0  0  0  0  0  0  0  0
   -7.9106   -1.1931    0.0000 N   0  0  0  0  0  0  0  0  0  0  0  0
   -6.4188   -1.3499    0.0000 C   0  0  0  0  0  0  0  0  0  0  0  0
   -5.8087   -2.7203    0.0000 O   0  0  0  0  0  0  0  0  0  0  0  0
   -5.5371   -0.1364    0.0000 C   0  0  0  0  0  0  0  0  0  0  0  0
   -6.0006    1.2902    0.0000 C   0  0  0  0  0  0  0  0  0  0  0  0
   -4.7871    2.1718    0.0000 C   0  0  0  0  0  0  0  0  0  0  0  0
   -4.7871    3.6718    0.0000 Br  0  0  0  0  0  0  0  0  0  0  0  0
   -3.5736    1.2902    0.0000 C   0  0  0  0  0  0  0  0  0  0  0  0
   -2.1470    1.7537    0.0000 C   0  0  0  0  0  0  0  0  0  0  0  0
   -1.8351    3.2209    0.0000 C   0  0  0  0  0  0  0  0  0  0  0  0
   -0.4086    3.6844    0.0000 C   0  0  0  0  0  0  0  0  0  0  0  0
    0.7062    2.6807    0.0000 N   0  0  0  0  0  0  0  0  0  0  0  0
    0.3943    1.2135    0.0000 C   0  0  0  0  0  0  0  0  0  0  0  0
    1.2760    0.0000    0.0000 N   0  0  0  0  0  0  0  0  0  0  0  0
    0.3943   -1.2135    0.0000 C   0  0  0  0  0  0  0  0  0  0  0  0
   -1.0323   -0.7500    0.0000 C   0  0  0  0  0  0  0  0  0  0  0  0
   -1.0323    0.7500    0.0000 C   0  0  0  0  0  0  0  0  0  0  0  0
   -4.0371   -0.1364    0.0000 S   0  0  0  0  0  0  0  0  0  0  0  0
  -10.2840   -2.2499    0.0000 C   0  0  0  0  0  0  0  0  0  0  0  0
  -10.8941   -0.8796    0.0000 C   0  0  0  0  0  0  0  0  0  0  0  0
  -12.3859   -0.7228    0.0000 C   0  0  0  0  0  0  0  0  0  0  0  0
  -13.2676   -1.9363    0.0000 C   0  0  0  0  0  0  0  0  0  0  0  0
  -12.6575   -3.3066    0.0000 C   0  0  0  0  0  0  0  0  0  0  0  0
  -11.1657   -3.4634    0.0000 C   0  0  0  0  0  0  0  0  0  0  0  0
  1  2  1  0
  2  3  1  0
  3  4  1  0
  4  5  1  0
  5  6  2  0
  5  7  1  0
  7  8  2  0
  8  9  1  0
  9 10  1  0
  9 11  2  0
 11 12  1  0
 12 13  2  0
 13 14  1  0
 14 15  2  0
 15 16  1  0
 16 17  1  0
 17 18  1  0
 18 19  2  0
 19 20  1  0
 11 21  1  0
  3 22  1  0
 22 23  2  0
 23 24  1  0
 24 25  2  0
 25 26  1  0
 26 27  2  0
 21  7  1  0
 27 22  1  0
 20 12  1  0
 20 16  2  0
M  END
>  <Compound_ID>  (26) 
CHEMBL512135

>  <Active>  (26) 
1

>  <Smiles>  (26) 
NCC(NC(=O)c1cc(Br)c(-c2ccnc3[nH]ccc23)s1)c1ccccc1

>  <canonical_smi>  (26) 
NCC(NC(=O)c1cc(Br)c(-c2ccnc3[nH]ccc23)s1)c1ccccc1

>  <Set>  (26) 
G1 active

>  <Set_type>  (26) 
G1

>  <MW>  (26) 
441.35

>  <HBD>  (26) 
3

>  <HBA>  (26) 
3

>  <NRB>  (26) 
5

>  <NR>  (26) 
4

>  <NAR>  (26) 
4

>  <PSA>  (26) 
83.8

>  <Standard Type>  (26) 
nan

>  <Standard Relation>  (26) 
nan

>  <Standard Units>  (26) 
nan

>  <Standard Value>  (26) 
nan

>  <Assay ChEMBL ID>  (26) 
nan

>  <Assay Description>  (26) 
nan

>  <BAO Label>  (26) 
nan

$$$$

     RDKit          2D

 34 38  0  0  0  0  0  0  0  0999 V2000
   -1.1682   -6.5372    0.0000 C   0  0  0  0  0  0  0  0  0  0  0  0
   -1.6317   -5.1106    0.0000 C   0  0  0  0  0  0  0  0  0  0  0  0
   -3.0583   -4.6471    0.0000 O   0  0  0  0  0  0  0  0  0  0  0  0
   -3.0583   -3.1471    0.0000 C   0  0  0  0  0  0  0  0  0  0  0  0
   -1.6317   -2.6836    0.0000 C   0  0  0  0  0  0  0  0  0  0  0  0
   -0.7500   -3.8971    0.0000 C   0  0  0  0  0  0  0  0  0  0  0  0
    0.7500   -3.8971    0.0000 C   0  0  0  0  0  0  0  0  0  0  0  0
    1.5000   -5.1962    0.0000 N   0  0  0  0  0  0  0  0  0  0  0  0
    3.0000   -5.1962    0.0000 C   0  0  0  0  0  0  0  0  0  0  0  0
    3.7500   -6.4952    0.0000 N   0  0  0  0  0  0  0  0  0  0  0  0
    3.7500   -3.8971    0.0000 C   0  0  0  0  0  0  0  0  0  0  0  0
    5.2500   -3.8971    0.0000 O   0  0  0  0  0  0  0  0  0  0  0  0
    6.0000   -2.5981    0.0000 C   0  0  0  0  0  0  0  0  0  0  0  0
    7.5000   -2.5981    0.0000 C   0  0  0  0  0  0  0  0  0  0  0  0
    8.2500   -3.8971    0.0000 N   0  0  0  0  0  0  0  0  0  0  0  0
    8.2500   -1.2990    0.0000 C   0  0  0  0  0  0  0  0  0  0  0  0
    9.7500   -1.2990    0.0000 C   0  0  0  0  0  0  0  0  0  0  0  0
   10.5000   -2.5981    0.0000 C   0  0  0  0  0  0  0  0  0  0  0  0
   12.0000   -2.5981    0.0000 C   0  0  0  0  0  0  0  0  0  0  0  0
   12.7500   -1.2990    0.0000 C   0  0  0  0  0  0  0  0  0  0  0  0
   12.0000   -0.0000    0.0000 C   0  0  0  0  0  0  0  0  0  0  0  0
   10.5000   -0.0000    0.0000 C   0  0  0  0  0  0  0  0  0  0  0  0
    3.0000   -2.5981    0.0000 C   0  0  0  0  0  0  0  0  0  0  0  0
    1.5000   -2.5981    0.0000 C   0  0  0  0  0  0  0  0  0  0  0  0
    0.7500   -1.2990    0.0000 C   0  0  0  0  0  0  0  0  0  0  0  0
   -0.7500   -1.2990    0.0000 C   0  0  0  0  0  0  0  0  0  0  0  0
   -1.5000   -0.0000    0.0000 N   0  0  0  0  0  0  0  0  0  0  0  0
   -0.7500    1.2990    0.0000 C   0  0  0  0  0  0  0  0  0  0  0  0
   -1.2135    2.7256    0.0000 N   0  0  0  0  0  0  0  0  0  0  0  0
   -0.0000    3.6073    0.0000 N   0  0  0  0  0  0  0  0  0  0  0  0
    1.2135    2.7256    0.0000 C   0  0  0  0  0  0  0  0  0  0  0  0
    2.6401    3.1891    0.0000 C   0  0  0  0  0  0  0  0  0  0  0  0
    0.7500    1.2990    0.0000 C   0  0  0  0  0  0  0  0  0  0  0  0
    1.5000   -0.0000    0.0000 N   0  0  0  0  0  0  0  0  0  0  0  0
  1  2  1  0
  2  3  1  0
  3  4  1  0
  4  5  2  0
  5  6  1  0
  6  7  1  0
  7  8  2  0
  8  9  1  0
  9 10  1  0
  9 11  2  0
 11 12  1  0
 12 13  1  0
 13 14  1  0
 14 15  1  6
 14 16  1  0
 16 17  1  0
 17 18  2  0
 18 19  1  0
 19 20  2  0
 20 21  1  0
 21 22  2  0
 11 23  1  0
 23 24  2  0
 24 25  1  0
 25 26  2  0
 26 27  1  0
 27 28  2  0
 28 29  1  0
 29 30  1  0
 30 31  2  0
 31 32  1  0
 31 33  1  0
 33 34  2  0
  6  2  2  0
 24  7  1  0
 34 25  1  0
 22 17  1  0
 33 28  1  0
M  END
>  <Compound_ID>  (27) 
CHEMBL594755

>  <Active>  (27) 
1

>  <Smiles>  (27) 
Cc1occc1-c1nc(N)c(OC[C@@H](N)Cc2ccccc2)cc1-c1cnc2[nH]nc(C)c2n1

>  <canonical_smi>  (27) 
Cc1occc1-c1nc(N)c(OC[C@@H](N)Cc2ccccc2)cc1-c1cnc2[nH]nc(C)c2n1

>  <Set>  (27) 
G1 active

>  <Set_type>  (27) 
G1

>  <MW>  (27) 
455.52

>  <HBD>  (27) 
3

>  <HBA>  (27) 
8

>  <NRB>  (27) 
7

>  <NR>  (27) 
5

>  <NAR>  (27) 
5

>  <PSA>  (27) 
141.76

>  <Standard Type>  (27) 
nan

>  <Standard Relation>  (27) 
nan

>  <Standard Units>  (27) 
nan

>  <Standard Value>  (27) 
nan

>  <Assay ChEMBL ID>  (27) 
nan

>  <Assay Description>  (27) 
nan

>  <BAO Label>  (27) 
nan

$$$$

     RDKit          2D

 16 18  0  0  0  0  0  0  0  0999 V2000
   -7.8533   -0.1004    0.0000 N   0  0  0  0  0  0  0  0  0  0  0  0
   -6.4268    0.3631    0.0000 C   0  0  0  0  0  0  0  0  0  0  0  0
   -6.1149    1.8303    0.0000 C   0  0  0  0  0  0  0  0  0  0  0  0
   -4.6883    2.2939    0.0000 C   0  0  0  0  0  0  0  0  0  0  0  0
   -3.5736    1.2902    0.0000 N   0  0  0  0  0  0  0  0  0  0  0  0
   -2.1470    1.7537    0.0000 C   0  0  0  0  0  0  0  0  0  0  0  0
   -1.8351    3.2209    0.0000 N   0  0  0  0  0  0  0  0  0  0  0  0
   -0.4086    3.6844    0.0000 C   0  0  0  0  0  0  0  0  0  0  0  0
    0.7062    2.6807    0.0000 N   0  0  0  0  0  0  0  0  0  0  0  0
    0.3943    1.2135    0.0000 C   0  0  0  0  0  0  0  0  0  0  0  0
    1.2760    0.0000    0.0000 N   0  0  0  0  0  0  0  0  0  0  0  0
    0.3943   -1.2135    0.0000 C   0  0  0  0  0  0  0  0  0  0  0  0
   -1.0323   -0.7500    0.0000 C   0  0  0  0  0  0  0  0  0  0  0  0
   -1.0323    0.7500    0.0000 C   0  0  0  0  0  0  0  0  0  0  0  0
   -3.8855   -0.1771    0.0000 C   0  0  0  0  0  0  0  0  0  0  0  0
   -5.3120   -0.6406    0.0000 C   0  0  0  0  0  0  0  0  0  0  0  0
  1  2  1  0
  2  3  1  0
  3  4  1  0
  4  5  1  0
  5  6  1  0
  6  7  2  0
  7  8  1  0
  8  9  2  0
  9 10  1  0
 10 11  1  0
 11 12  1  0
 12 13  2  0
 13 14  1  0
  5 15  1  0
 15 16  1  0
 16  2  1  0
 14  6  1  0
 14 10  2  0
M  END
>  <Compound_ID>  (28) 
CHEMBL259141

>  <Active>  (28) 
1

>  <Smiles>  (28) 
NC1CCN(c2ncnc3[nH]ccc23)CC1

>  <canonical_smi>  (28) 
NC1CCN(c2ncnc3[nH]ccc23)CC1

>  <Set>  (28) 
G1 active

>  <Set_type>  (28) 
G1

>  <MW>  (28) 
217.28

>  <HBD>  (28) 
2

>  <HBA>  (28) 
4

>  <NRB>  (28) 
1

>  <NR>  (28) 
3

>  <NAR>  (28) 
2

>  <PSA>  (28) 
70.83

>  <Standard Type>  (28) 
nan

>  <Standard Relation>  (28) 
nan

>  <Standard Units>  (28) 
nan

>  <Standard Value>  (28) 
nan

>  <Assay ChEMBL ID>  (28) 
nan

>  <Assay Description>  (28) 
nan

>  <BAO Label>  (28) 
nan

$$$$

     RDKit          2D

 29 32  0  0  0  0  0  0  0  0999 V2000
   -3.7548   -2.1855    0.0000 C   0  0  0  0  0  0  0  0  0  0  0  0
   -2.6401   -3.1891    0.0000 C   0  0  0  0  0  0  0  0  0  0  0  0
   -1.2135   -2.7256    0.0000 N   0  0  0  0  0  0  0  0  0  0  0  0
   -0.0000   -3.6073    0.0000 C   0  0  0  0  0  0  0  0  0  0  0  0
   -0.0000   -5.1073    0.0000 C   0  0  0  0  0  0  0  0  0  0  0  0
    1.2135   -5.9890    0.0000 N   0  0  0  0  0  0  0  0  0  0  0  0
    0.7500   -7.4156    0.0000 O   0  0  0  0  0  0  0  0  0  0  0  0
   -0.7500   -7.4156    0.0000 N   0  0  0  0  0  0  0  0  0  0  0  0
   -1.2135   -5.9890    0.0000 C   0  0  0  0  0  0  0  0  0  0  0  0
   -2.6401   -5.5255    0.0000 N   0  0  0  0  0  0  0  0  0  0  0  0
    1.2135   -2.7256    0.0000 N   0  0  0  0  0  0  0  0  0  0  0  0
    0.7500   -1.2990    0.0000 C   0  0  0  0  0  0  0  0  0  0  0  0
    1.5000    0.0000    0.0000 C   0  0  0  0  0  0  0  0  0  0  0  0
    3.0000    0.0000    0.0000 C   0  0  0  0  0  0  0  0  0  0  0  0
    4.5000    0.0000    0.0000 C   0  0  0  0  0  0  0  0  0  0  0  0
    6.0000    0.0000    0.0000 C   0  0  0  0  0  0  0  0  0  0  0  0
    6.0000   -1.5000    0.0000 C   0  0  0  0  0  0  0  0  0  0  0  0
    6.0000    1.5000    0.0000 C   0  0  0  0  0  0  0  0  0  0  0  0
    7.5000    0.0000    0.0000 O   0  0  0  0  0  0  0  0  0  0  0  0
    0.7500    1.2990    0.0000 N   0  0  0  0  0  0  0  0  0  0  0  0
   -0.7500    1.2990    0.0000 C   0  0  0  0  0  0  0  0  0  0  0  0
   -1.5000    2.5981    0.0000 C   0  0  0  0  0  0  0  0  0  0  0  0
   -0.7500    3.8971    0.0000 N   0  0  0  0  0  0  0  0  0  0  0  0
   -1.3601    5.2674    0.0000 C   0  0  0  0  0  0  0  0  0  0  0  0
   -0.2454    6.2711    0.0000 C   0  0  0  0  0  0  0  0  0  0  0  0
    1.0537    5.5211    0.0000 C   0  0  0  0  0  0  0  0  0  0  0  0
    0.7418    4.0539    0.0000 C   0  0  0  0  0  0  0  0  0  0  0  0
   -1.5000    0.0000    0.0000 C   0  0  0  0  0  0  0  0  0  0  0  0
   -0.7500   -1.2990    0.0000 C   0  0  0  0  0  0  0  0  0  0  0  0
  1  2  1  0
  2  3  1  0
  3  4  1  0
  4  5  1  0
  5  6  2  0
  6  7  1  0
  7  8  1  0
  8  9  2  0
  9 10  1  0
  4 11  2  0
 11 12  1  0
 12 13  2  0
 13 14  1  0
 14 15  3  0
 15 16  1  0
 16 17  1  0
 16 18  1  0
 16 19  1  0
 13 20  1  0
 20 21  2  0
 21 22  1  0
 22 23  1  0
 23 24  1  0
 24 25  1  0
 25 26  1  0
 26 27  1  0
 21 28  1  0
 28 29  2  0
 29  3  1  0
  9  5  1  0
 29 12  1  0
 27 23  1  0
M  END
>  <Compound_ID>  (29) 
CHEMBL1096290

>  <Active>  (29) 
1

>  <Smiles>  (29) 
CCn1c(-c2nonc2N)nc2c(C#CC(C)(C)O)nc(CN3CCCC3)cc21

>  <canonical_smi>  (29) 
CCn1c(-c2nonc2N)nc2c(C#CC(C)(C)O)nc(CN3CCCC3)cc21

>  <Set>  (29) 
G1 active

>  <Set_type>  (29) 
G1

>  <MW>  (29) 
395.47

>  <HBD>  (29) 
2

>  <HBA>  (29) 
8

>  <NRB>  (29) 
4

>  <NR>  (29) 
4

>  <NAR>  (29) 
3

>  <PSA>  (29) 
119.12

>  <Standard Type>  (29) 
nan

>  <Standard Relation>  (29) 
nan

>  <Standard Units>  (29) 
nan

>  <Standard Value>  (29) 
nan

>  <Assay ChEMBL ID>  (29) 
nan

>  <Assay Description>  (29) 
nan

>  <BAO Label>  (29) 
nan

$$$$

     RDKit          2D

 23 26  0  0  0  0  0  0  0  0999 V2000
    1.5000    0.0000    0.0000 C   0  0  0  0  0  0  0  0  0  0  0  0
    0.7500   -1.2990    0.0000 C   0  0  0  0  0  0  0  0  0  0  0  0
   -0.7500   -1.2990    0.0000 C   0  0  0  0  0  0  0  0  0  0  0  0
   -1.5000    0.0000    0.0000 C   0  0  0  0  0  0  0  0  0  0  0  0
   -3.0000    0.0000    0.0000 C   0  0  0  0  0  0  0  0  0  0  0  0
   -2.7395   -1.4772    0.0000 C   0  0  0  0  0  0  0  0  0  0  0  0
   -3.8886   -2.4414    0.0000 C   0  0  0  0  0  0  0  0  0  0  0  0
   -3.6281   -3.9186    0.0000 C   0  0  0  0  0  0  0  0  0  0  0  0
   -2.2186   -4.4316    0.0000 C   0  0  0  0  0  0  0  0  0  0  0  0
   -1.9581   -5.9088    0.0000 C   0  0  0  0  0  0  0  0  0  0  0  0
   -0.6099   -6.5664    0.0000 C   0  0  0  0  0  0  0  0  0  0  0  0
   -0.8187   -8.0518    0.0000 N   0  0  0  0  0  0  0  0  0  0  0  0
   -2.2959   -8.3123    0.0000 N   0  0  0  0  0  0  0  0  0  0  0  0
   -3.0001   -6.9879    0.0000 C   0  0  0  0  0  0  0  0  0  0  0  0
   -1.0695   -3.4675    0.0000 C   0  0  0  0  0  0  0  0  0  0  0  0
   -1.3300   -1.9902    0.0000 C   0  0  0  0  0  0  0  0  0  0  0  0
   -2.7395    1.4772    0.0000 C   0  0  0  0  0  0  0  0  0  0  0  0
   -3.8886    2.4414    0.0000 C   0  0  0  0  0  0  0  0  0  0  0  0
   -5.2981    1.9284    0.0000 N   0  0  0  0  0  0  0  0  0  0  0  0
   -5.5586    0.4512    0.0000 C   0  0  0  0  0  0  0  0  0  0  0  0
   -4.4095   -0.5130    0.0000 C   0  0  0  0  0  0  0  0  0  0  0  0
   -0.7500    1.2990    0.0000 C   0  0  0  0  0  0  0  0  0  0  0  0
    0.7500    1.2990    0.0000 C   0  0  0  0  0  0  0  0  0  0  0  0
  1  2  2  0
  2  3  1  0
  3  4  2  0
  4  5  1  0
  5  6  1  0
  6  7  2  0
  7  8  1  0
  8  9  2  0
  9 10  1  0
 10 11  1  0
 11 12  2  0
 12 13  1  0
 13 14  1  0
  9 15  1  0
 15 16  2  0
  5 17  1  0
 17 18  1  0
 18 19  1  0
 19 20  1  0
 20 21  1  0
  4 22  1  0
 22 23  2  0
 23  1  1  0
 21  5  1  0
 16  6  1  0
 14 10  2  0
M  END
>  <Compound_ID>  (30) 
CHEMBL374742

>  <Active>  (30) 
1

>  <Smiles>  (30) 
c1ccc(C2(c3ccc(-c4cn[nH]c4)cc3)CCNCC2)cc1

>  <canonical_smi>  (30) 
c1ccc(C2(c3ccc(-c4cn[nH]c4)cc3)CCNCC2)cc1

>  <Set>  (30) 
G1 active

>  <Set_type>  (30) 
G1

>  <MW>  (30) 
303.41

>  <HBD>  (30) 
2

>  <HBA>  (30) 
2

>  <NRB>  (30) 
3

>  <NR>  (30) 
4

>  <NAR>  (30) 
3

>  <PSA>  (30) 
40.71

>  <Standard Type>  (30) 
nan

>  <Standard Relation>  (30) 
nan

>  <Standard Units>  (30) 
nan

>  <Standard Value>  (30) 
nan

>  <Assay ChEMBL ID>  (30) 
nan

>  <Assay Description>  (30) 
nan

>  <BAO Label>  (30) 
nan

$$$$

     RDKit          2D

 40 46  0  0  0  0  0  0  0  0999 V2000
    3.0000   -7.7942    0.0000 C   0  0  0  0  0  0  0  0  0  0  0  0
    1.5000   -7.7942    0.0000 C   0  0  0  0  0  0  0  0  0  0  0  0
    0.7500   -6.4952    0.0000 C   0  0  0  0  0  0  0  0  0  0  0  0
    1.5000   -5.1962    0.0000 C   0  0  0  0  0  0  0  0  0  0  0  0
    0.7500   -3.8971    0.0000 C   0  0  0  0  0  0  0  0  0  0  0  0
    1.5000   -2.5981    0.0000 C   0  0  0  0  0  0  0  0  0  0  0  0
    0.7500   -1.2990    0.0000 C   0  0  0  0  0  0  0  0  0  0  0  0
    1.5000    0.0000    0.0000 C   0  0  0  0  0  0  0  0  0  0  0  0
    0.7500    1.2990    0.0000 C   0  0  0  0  0  0  0  0  0  0  0  0
   -0.7500    1.2990    0.0000 C   0  0  0  0  0  0  0  0  0  0  0  0
   -1.5000    0.0000    0.0000 N   0  0  0  0  0  0  0  0  0  0  0  0
   -0.7500   -1.2990    0.0000 C   0  0  0  0  0  0  0  0  0  0  0  0
   -1.5000   -2.5981    0.0000 N   0  0  0  0  0  0  0  0  0  0  0  0
   -0.7500   -3.8971    0.0000 C   0  0  0  0  0  0  0  0  0  0  0  0
   -1.5000   -5.1962    0.0000 C   0  0  0  0  0  0  0  0  0  0  0  0
   -3.0000   -5.1962    0.0000 C   0  0  0  0  0  0  0  0  0  0  0  0
   -3.7500   -6.4952    0.0000 C   0  0  0  0  0  0  0  0  0  0  0  0
   -3.0000   -7.7942    0.0000 C   0  0  0  0  0  0  0  0  0  0  0  0
   -3.7500   -9.0933    0.0000 C   0  0  0  0  0  0  0  0  0  0  0  0
   -5.2500   -9.0933    0.0000 N   0  0  0  0  0  0  0  0  0  0  0  0
   -6.0000   -7.7942    0.0000 C   0  0  0  0  0  0  0  0  0  0  0  0
   -7.5000   -7.7942    0.0000 C   0  0  0  0  0  0  0  0  0  0  0  0
   -8.2500   -9.0933    0.0000 C   0  0  0  0  0  0  0  0  0  0  0  0
   -9.7500   -9.0933    0.0000 C   0  0  0  0  0  0  0  0  0  0  0  0
  -10.6317  -10.3068    0.0000 N   0  0  0  0  0  0  0  0  0  0  0  0
  -12.0583   -9.8433    0.0000 N   0  0  0  0  0  0  0  0  0  0  0  0
  -12.0583   -8.3433    0.0000 C   0  0  0  0  0  0  0  0  0  0  0  0
  -13.2718   -7.4616    0.0000 C   0  0  0  0  0  0  0  0  0  0  0  0
  -13.1150   -5.9698    0.0000 C   0  0  0  0  0  0  0  0  0  0  0  0
  -14.3285   -5.0881    0.0000 C   0  0  0  0  0  0  0  0  0  0  0  0
  -15.6988   -5.6982    0.0000 C   0  0  0  0  0  0  0  0  0  0  0  0
  -15.8556   -7.1900    0.0000 C   0  0  0  0  0  0  0  0  0  0  0  0
  -14.6421   -8.0717    0.0000 N   0  0  0  0  0  0  0  0  0  0  0  0
  -10.6317   -7.8797    0.0000 N   0  0  0  0  0  0  0  0  0  0  0  0
   -7.5000  -10.3923    0.0000 C   0  0  0  0  0  0  0  0  0  0  0  0
   -6.0000  -10.3923    0.0000 C   0  0  0  0  0  0  0  0  0  0  0  0
   -1.5000   -7.7942    0.0000 C   0  0  0  0  0  0  0  0  0  0  0  0
   -0.7500   -6.4952    0.0000 C   0  0  0  0  0  0  0  0  0  0  0  0
    3.0000   -5.1962    0.0000 C   0  0  0  0  0  0  0  0  0  0  0  0
    3.7500   -6.4952    0.0000 C   0  0  0  0  0  0  0  0  0  0  0  0
  1  2  2  0
  2  3  1  0
  3  4  2  0
  4  5  1  0
  5  6  2  0
  6  7  1  0
  7  8  2  0
  8  9  1  0
  9 10  2  0
 10 11  1  0
 11 12  2  0
 12 13  1  0
 13 14  2  0
 14 15  1  0
 15 16  2  0
 16 17  1  0
 17 18  2  0
 18 19  1  0
 19 20  1  0
 20 21  1  0
 21 22  1  0
 22 23  1  0
 23 24  1  0
 24 25  2  0
 25 26  1  0
 26 27  1  0
 27 28  1  0
 28 29  2  0
 29 30  1  0
 30 31  2  0
 31 32  1  0
 32 33  2  0
 27 34  2  0
 23 35  1  0
 35 36  1  0
 18 37  1  0
 37 38  2  0
  4 39  1  0
 39 40  2  0
 40  1  1  0
 14  5  1  0
 38 15  1  0
 12  7  1  0
 36 20  1  0
 34 24  1  0
 33 28  1  0
M  END
>  <Compound_ID>  (31) 
CHEMBL260670

>  <Active>  (31) 
1

>  <Smiles>  (31) 
c1ccc(-c2cc3cccnc3nc2-c2ccc(CN3CCC(c4n[nH]c(-c5ccccn5)n4)CC3)cc2)cc1

>  <canonical_smi>  (31) 
c1ccc(-c2cc3cccnc3nc2-c2ccc(CN3CCC(c4n[nH]c(-c5ccccn5)n4)CC3)cc2)cc1

>  <Set>  (31) 
G1 active

>  <Set_type>  (31) 
G1

>  <MW>  (31) 
523.64

>  <HBD>  (31) 
1

>  <HBA>  (31) 
6

>  <NRB>  (31) 
6

>  <NR>  (31) 
7

>  <NAR>  (31) 
6

>  <PSA>  (31) 
83.48

>  <Standard Type>  (31) 
nan

>  <Standard Relation>  (31) 
nan

>  <Standard Units>  (31) 
nan

>  <Standard Value>  (31) 
nan

>  <Assay ChEMBL ID>  (31) 
nan

>  <Assay Description>  (31) 
nan

>  <BAO Label>  (31) 
nan

$$$$

     RDKit          2D

 37 42  0  0  0  0  0  0  0  0999 V2000
    1.5000    0.0000    0.0000 C   0  0  0  0  0  0  0  0  0  0  0  0
    0.7500   -1.2990    0.0000 C   0  0  0  0  0  0  0  0  0  0  0  0
   -0.7500   -1.2990    0.0000 C   0  0  0  0  0  0  0  0  0  0  0  0
   -1.5000    0.0000    0.0000 C   0  0  0  0  0  0  0  0  0  0  0  0
   -3.0000    0.0000    0.0000 C   0  0  0  0  0  0  0  0  0  0  0  0
   -3.7500    1.2990    0.0000 C   0  0  0  0  0  0  0  0  0  0  0  0
   -5.2500    1.2990    0.0000 C   0  0  0  0  0  0  0  0  0  0  0  0
   -6.0000    2.5981    0.0000 C   0  0  0  0  0  0  0  0  0  0  0  0
   -7.4918    2.7549    0.0000 N   0  0  0  0  0  0  0  0  0  0  0  0
   -7.8037    4.2221    0.0000 N   0  0  0  0  0  0  0  0  0  0  0  0
   -6.5046    4.9721    0.0000 N   0  0  0  0  0  0  0  0  0  0  0  0
   -5.3899    3.9684    0.0000 N   0  0  0  0  0  0  0  0  0  0  0  0
   -6.0000    0.0000    0.0000 C   0  0  0  0  0  0  0  0  0  0  0  0
   -5.2500   -1.2990    0.0000 N   0  0  0  0  0  0  0  0  0  0  0  0
   -3.7500   -1.2990    0.0000 C   0  0  0  0  0  0  0  0  0  0  0  0
   -3.0000   -2.5981    0.0000 C   0  0  0  0  0  0  0  0  0  0  0  0
   -3.7500   -3.8971    0.0000 C   0  0  0  0  0  0  0  0  0  0  0  0
   -3.0000   -5.1962    0.0000 C   0  0  0  0  0  0  0  0  0  0  0  0
   -1.5000   -5.1962    0.0000 C   0  0  0  0  0  0  0  0  0  0  0  0
   -0.7500   -6.4952    0.0000 C   0  0  0  0  0  0  0  0  0  0  0  0
   -1.5000   -7.7942    0.0000 N   0  0  0  0  0  0  0  0  0  0  0  0
   -0.7500   -9.0933    0.0000 C   0  0  0  0  0  0  0  0  0  0  0  0
   -1.5000  -10.3923    0.0000 C   0  0  0  0  0  0  0  0  0  0  0  0
   -3.0000  -10.3923    0.0000 C   0  0  0  0  0  0  0  0  0  0  0  0
   -3.7500  -11.6913    0.0000 C   0  0  0  0  0  0  0  0  0  0  0  0
   -3.0000  -12.9904    0.0000 C   0  0  0  0  0  0  0  0  0  0  0  0
   -3.7500  -14.2894    0.0000 C   0  0  0  0  0  0  0  0  0  0  0  0
   -3.1399  -15.6597    0.0000 C   0  0  0  0  0  0  0  0  0  0  0  0
   -4.2546  -16.6634    0.0000 S   0  0  0  0  0  0  0  0  0  0  0  0
   -5.5537  -15.9134    0.0000 N   0  0  0  0  0  0  0  0  0  0  0  0
   -5.2418  -14.4462    0.0000 N   0  0  0  0  0  0  0  0  0  0  0  0
   -1.5000  -12.9904    0.0000 C   0  0  0  0  0  0  0  0  0  0  0  0
   -0.7500  -11.6913    0.0000 C   0  0  0  0  0  0  0  0  0  0  0  0
   -0.7500   -3.8971    0.0000 C   0  0  0  0  0  0  0  0  0  0  0  0
   -1.5000   -2.5981    0.0000 C   0  0  0  0  0  0  0  0  0  0  0  0
   -0.7500    1.2990    0.0000 C   0  0  0  0  0  0  0  0  0  0  0  0
    0.7500    1.2990    0.0000 C   0  0  0  0  0  0  0  0  0  0  0  0
  1  2  2  0
  2  3  1  0
  3  4  2  0
  4  5  1  0
  5  6  2  0
  6  7  1  0
  7  8  1  0
  8  9  1  0
  9 10  2  0
 10 11  1  0
 11 12  1  0
  7 13  2  0
 13 14  1  0
 14 15  2  0
 15 16  1  0
 16 17  2  0
 17 18  1  0
 18 19  2  0
 19 20  1  0
 20 21  1  0
 21 22  1  0
 22 23  1  0
 23 24  2  0
 24 25  1  0
 25 26  2  0
 26 27  1  0
 27 28  2  0
 28 29  1  0
 29 30  1  0
 30 31  2  0
 26 32  1  0
 32 33  2  0
 19 34  1  0
 34 35  2  0
  4 36  1  0
 36 37  2  0
 37  1  1  0
 15  5  1  0
 35 16  1  0
 12  8  2  0
 33 23  1  0
 31 27  1  0
M  END
>  <Compound_ID>  (32) 
CHEMBL425155

>  <Active>  (32) 
1

>  <Smiles>  (32) 
c1ccc(-c2cc(-c3nn[nH]n3)cnc2-c2ccc(CNCc3ccc(-c4csnn4)cc3)cc2)cc1

>  <canonical_smi>  (32) 
c1ccc(-c2cc(-c3nn[nH]n3)cnc2-c2ccc(CNCc3ccc(-c4csnn4)cc3)cc2)cc1

>  <Set>  (32) 
G1 active

>  <Set_type>  (32) 
G1

>  <MW>  (32) 
502.61

>  <HBD>  (32) 
2

>  <HBA>  (32) 
7

>  <NRB>  (32) 
8

>  <NR>  (32) 
6

>  <NAR>  (32) 
6

>  <PSA>  (32) 
105.16

>  <Standard Type>  (32) 
nan

>  <Standard Relation>  (32) 
nan

>  <Standard Units>  (32) 
nan

>  <Standard Value>  (32) 
nan

>  <Assay ChEMBL ID>  (32) 
nan

>  <Assay Description>  (32) 
nan

>  <BAO Label>  (32) 
nan

$$$$

     RDKit          2D

 28 31  0  0  0  0  0  0  0  0999 V2000
   -1.8373   -5.6601    0.0000 N   0  0  0  0  0  0  0  0  0  0  0  0
   -2.9520   -4.6564    0.0000 C   0  0  0  0  0  0  0  0  0  0  0  0
   -4.3786   -5.1199    0.0000 C   0  0  0  0  0  0  0  0  0  0  0  0
   -4.6904   -6.5871    0.0000 O   0  0  0  0  0  0  0  0  0  0  0  0
   -6.1170   -7.0506    0.0000 C   0  0  0  0  0  0  0  0  0  0  0  0
   -7.2317   -6.0469    0.0000 C   0  0  0  0  0  0  0  0  0  0  0  0
   -8.6583   -6.5105    0.0000 N   0  0  0  0  0  0  0  0  0  0  0  0
   -8.9702   -7.9777    0.0000 C   0  0  0  0  0  0  0  0  0  0  0  0
   -7.8555   -8.9814    0.0000 C   0  0  0  0  0  0  0  0  0  0  0  0
   -8.1673  -10.4486    0.0000 C   0  0  0  0  0  0  0  0  0  0  0  0
   -9.5939  -10.9121    0.0000 C   0  0  0  0  0  0  0  0  0  0  0  0
   -9.9058  -12.3794    0.0000 C   0  0  0  0  0  0  0  0  0  0  0  0
  -11.3324  -12.8429    0.0000 C   0  0  0  0  0  0  0  0  0  0  0  0
  -11.6442  -14.3101    0.0000 C   0  0  0  0  0  0  0  0  0  0  0  0
  -10.5295  -15.3138    0.0000 N   0  0  0  0  0  0  0  0  0  0  0  0
   -9.1029  -14.8503    0.0000 C   0  0  0  0  0  0  0  0  0  0  0  0
   -8.7911  -13.3831    0.0000 C   0  0  0  0  0  0  0  0  0  0  0  0
   -6.4289   -8.5179    0.0000 C   0  0  0  0  0  0  0  0  0  0  0  0
   -2.6401   -3.1891    0.0000 C   0  0  0  0  0  0  0  0  0  0  0  0
   -1.2135   -2.7256    0.0000 C   0  0  0  0  0  0  0  0  0  0  0  0
   -0.0000   -3.6073    0.0000 C   0  0  0  0  0  0  0  0  0  0  0  0
    1.2135   -2.7256    0.0000 N   0  0  0  0  0  0  0  0  0  0  0  0
    0.7500   -1.2990    0.0000 C   0  0  0  0  0  0  0  0  0  0  0  0
    1.5000    0.0000    0.0000 C   0  0  0  0  0  0  0  0  0  0  0  0
    0.7500    1.2990    0.0000 C   0  0  0  0  0  0  0  0  0  0  0  0
   -0.7500    1.2990    0.0000 C   0  0  0  0  0  0  0  0  0  0  0  0
   -1.5000    0.0000    0.0000 C   0  0  0  0  0  0  0  0  0  0  0  0
   -0.7500   -1.2990    0.0000 C   0  0  0  0  0  0  0  0  0  0  0  0
  2  1  1  6
  2  3  1  0
  3  4  1  0
  4  5  1  0
  5  6  2  0
  6  7  1  0
  7  8  2  0
  8  9  1  0
  9 10  1  0
 10 11  2  0
 11 12  1  0
 12 13  2  0
 13 14  1  0
 14 15  2  0
 15 16  1  0
 16 17  2  0
  9 18  2  0
  2 19  1  0
 19 20  1  0
 20 21  2  0
 21 22  1  0
 22 23  1  0
 23 24  2  0
 24 25  1  0
 25 26  2  0
 26 27  1  0
 27 28  2  0
 18  5  1  0
 28 20  1  0
 17 12  1  0
 28 23  1  0
M  END
>  <Compound_ID>  (33) 
CHEMBL383541

>  <Active>  (33) 
1

>  <Smiles>  (33) 
N[C@H](COc1cncc(/C=C/c2ccncc2)c1)Cc1c[nH]c2ccccc12

>  <canonical_smi>  (33) 
N[C@H](COc1cncc(/C=C/c2ccncc2)c1)Cc1c[nH]c2ccccc12

>  <Set>  (33) 
G1 active

>  <Set_type>  (33) 
G1

>  <MW>  (33) 
370.46

>  <HBD>  (33) 
2

>  <HBA>  (33) 
4

>  <NRB>  (33) 
7

>  <NR>  (33) 
4

>  <NAR>  (33) 
4

>  <PSA>  (33) 
76.82

>  <Standard Type>  (33) 
nan

>  <Standard Relation>  (33) 
nan

>  <Standard Units>  (33) 
nan

>  <Standard Value>  (33) 
nan

>  <Assay ChEMBL ID>  (33) 
nan

>  <Assay Description>  (33) 
nan

>  <BAO Label>  (33) 
nan

$$$$

     RDKit          2D

 40 46  0  0  0  0  0  0  0  0999 V2000
    3.0000    0.0000    0.0000 N   0  0  0  0  0  0  0  0  0  0  0  0
    1.5000    0.0000    0.0000 C   0  0  0  0  0  0  0  0  0  0  0  0
    0.7500   -1.2990    0.0000 N   0  0  0  0  0  0  0  0  0  0  0  0
   -0.7500   -1.2990    0.0000 C   0  0  0  0  0  0  0  0  0  0  0  0
   -1.5000    0.0000    0.0000 N   0  0  0  0  0  0  0  0  0  0  0  0
   -0.7500    1.2990    0.0000 C   0  0  0  0  0  0  0  0  0  0  0  0
   -1.5000    2.5981    0.0000 N   0  0  0  0  0  0  0  0  0  0  0  0
   -0.7500    3.8971    0.0000 C   0  0  0  0  0  0  0  0  0  0  0  0
   -1.5000    5.1962    0.0000 C   0  0  0  0  0  0  0  0  0  0  0  0
   -0.7500    6.4952    0.0000 C   0  0  0  0  0  0  0  0  0  0  0  0
   -1.5000    7.7942    0.0000 C   0  0  0  0  0  0  0  0  0  0  0  0
   -3.0000    7.7942    0.0000 C   0  0  0  0  0  0  0  0  0  0  0  0
   -3.7500    9.0933    0.0000 C   0  0  0  0  0  0  0  0  0  0  0  0
   -3.0000   10.3923    0.0000 N   0  0  0  0  0  0  0  0  0  0  0  0
   -1.5000   10.3923    0.0000 C   0  0  0  0  0  0  0  0  0  0  0  0
   -0.7500   11.6913    0.0000 C   0  0  0  0  0  0  0  0  0  0  0  0
   -1.5000   12.9904    0.0000 C   0  0  0  0  0  0  0  0  0  0  0  0
   -0.7500   14.2894    0.0000 N   0  0  0  0  0  0  0  0  0  0  0  0
    0.7418   14.4462    0.0000 C   0  0  0  0  0  0  0  0  0  0  0  0
    1.7455   13.3315    0.0000 O   0  0  0  0  0  0  0  0  0  0  0  0
    1.0537   15.9134    0.0000 N   0  0  0  0  0  0  0  0  0  0  0  0
   -0.2454   16.6634    0.0000 C   0  0  0  0  0  0  0  0  0  0  0  0
   -0.5573   18.1307    0.0000 C   0  0  0  0  0  0  0  0  0  0  0  0
   -1.9838   18.5942    0.0000 C   0  0  0  0  0  0  0  0  0  0  0  0
   -3.0986   17.5905    0.0000 C   0  0  0  0  0  0  0  0  0  0  0  0
   -2.7867   16.1233    0.0000 C   0  0  0  0  0  0  0  0  0  0  0  0
   -1.3601   15.6597    0.0000 C   0  0  0  0  0  0  0  0  0  0  0  0
   -3.0000   12.9904    0.0000 C   0  0  0  0  0  0  0  0  0  0  0  0
   -3.7500   11.6913    0.0000 C   0  0  0  0  0  0  0  0  0  0  0  0
   -3.7500    6.4952    0.0000 C   0  0  0  0  0  0  0  0  0  0  0  0
   -3.0000    5.1962    0.0000 C   0  0  0  0  0  0  0  0  0  0  0  0
    0.7500    3.8971    0.0000 C   0  0  0  0  0  0  0  0  0  0  0  0
    1.5000    5.1962    0.0000 C   0  0  0  0  0  0  0  0  0  0  0  0
    3.0000    5.1962    0.0000 C   0  0  0  0  0  0  0  0  0  0  0  0
    3.7500    6.4952    0.0000 C   0  0  0  0  0  0  0  0  0  0  0  0
    3.0000    7.7942    0.0000 C   0  0  0  0  0  0  0  0  0  0  0  0
    1.5000    7.7942    0.0000 C   0  0  0  0  0  0  0  0  0  0  0  0
    0.7500    6.4952    0.0000 C   0  0  0  0  0  0  0  0  0  0  0  0
    1.5000    2.5981    0.0000 C   0  0  0  0  0  0  0  0  0  0  0  0
    0.7500    1.2990    0.0000 C   0  0  0  0  0  0  0  0  0  0  0  0
  1  2  1  0
  2  3  2  0
  3  4  1  0
  4  5  2  0
  5  6  1  0
  6  7  2  0
  7  8  1  0
  8  9  1  0
  9 10  2  0
 10 11  1  0
 11 12  2  0
 12 13  1  0
 13 14  1  0
 14 15  1  0
 15 16  1  0
 16 17  1  0
 17 18  1  0
 18 19  1  0
 19 20  2  0
 19 21  1  0
 21 22  1  0
 22 23  2  0
 23 24  1  0
 24 25  2  0
 25 26  1  0
 26 27  2  0
 17 28  1  0
 28 29  1  0
 12 30  1  0
 30 31  2  0
  8 32  2  0
 32 33  1  0
 33 34  2  0
 34 35  1  0
 35 36  2  0
 36 37  1  0
 37 38  2  0
 32 39  1  0
 39 40  2  0
 40  2  1  0
 40  6  1  0
 31  9  1  0
 38 33  1  0
 29 14  1  0
 27 18  1  0
 27 22  1  0
M  END
>  <Compound_ID>  (34) 
CHEMBL402199

>  <Active>  (34) 
1

>  <Smiles>  (34) 
Nc1ncnc2nc(-c3ccc(CN4CCC(n5c(=O)[nH]c6ccccc65)CC4)cc3)c(-c3ccccc3)cc12

>  <canonical_smi>  (34) 
Nc1ncnc2nc(-c3ccc(CN4CCC(n5c(=O)[nH]c6ccccc65)CC4)cc3)c(-c3ccccc3)cc12

>  <Set>  (34) 
G1 active

>  <Set_type>  (34) 
G1

>  <MW>  (34) 
527.63

>  <HBD>  (34) 
2

>  <HBA>  (34) 
6

>  <NRB>  (34) 
5

>  <NR>  (34) 
7

>  <NAR>  (34) 
6

>  <PSA>  (34) 
105.72

>  <Standard Type>  (34) 
nan

>  <Standard Relation>  (34) 
nan

>  <Standard Units>  (34) 
nan

>  <Standard Value>  (34) 
nan

>  <Assay ChEMBL ID>  (34) 
nan

>  <Assay Description>  (34) 
nan

>  <BAO Label>  (34) 
nan

$$$$

     RDKit          2D

 43 47  0  0  0  0  0  0  0  0999 V2000
   12.7455    5.0278    0.0000 C   0  0  0  0  0  0  0  0  0  0  0  0
   12.7829    3.5283    0.0000 C   0  0  0  0  0  0  0  0  0  0  0  0
   14.2532    3.8255    0.0000 C   0  0  0  0  0  0  0  0  0  0  0  0
   13.3309    2.1320    0.0000 C   0  0  0  0  0  0  0  0  0  0  0  0
   12.3957    0.9593    0.0000 C   0  0  0  0  0  0  0  0  0  0  0  0
   10.9125    1.1828    0.0000 C   0  0  0  0  0  0  0  0  0  0  0  0
   10.3644    2.5791    0.0000 N   0  0  0  0  0  0  0  0  0  0  0  0
   11.2997    3.7519    0.0000 C   0  0  0  0  0  0  0  0  0  0  0  0
   10.7517    5.1482    0.0000 C   0  0  0  0  0  0  0  0  0  0  0  0
   11.6869    6.3209    0.0000 C   0  0  0  0  0  0  0  0  0  0  0  0
   11.1389    7.7172    0.0000 C   0  0  0  0  0  0  0  0  0  0  0  0
    9.6556    7.9408    0.0000 C   0  0  0  0  0  0  0  0  0  0  0  0
    9.1076    9.3371    0.0000 O   0  0  0  0  0  0  0  0  0  0  0  0
    8.7204    6.7681    0.0000 C   0  0  0  0  0  0  0  0  0  0  0  0
    7.2372    6.9916    0.0000 C   0  0  0  0  0  0  0  0  0  0  0  0
    6.6892    8.3879    0.0000 O   0  0  0  0  0  0  0  0  0  0  0  0
    6.3019    5.8189    0.0000 C   0  0  0  0  0  0  0  0  0  0  0  0
    4.8187    6.0424    0.0000 C   0  0  0  0  0  0  0  0  0  0  0  0
    3.8835    4.8697    0.0000 C   0  0  0  0  0  0  0  0  0  0  0  0
    4.4315    3.4734    0.0000 C   0  0  0  0  0  0  0  0  0  0  0  0
    3.4962    2.3006    0.0000 C   0  0  0  0  0  0  0  0  0  0  0  0
    4.0442    0.9043    0.0000 O   0  0  0  0  0  0  0  0  0  0  0  0
    2.0130    2.5242    0.0000 N   0  0  0  0  0  0  0  0  0  0  0  0
    1.0777    1.3515    0.0000 C   0  0  0  0  0  0  0  0  0  0  0  0
    1.7286    0.0000    0.0000 C   0  0  0  0  0  0  0  0  0  0  0  0
    1.0777   -1.3515    0.0000 C   0  0  0  0  0  0  0  0  0  0  0  0
   -0.3846   -1.6852    0.0000 C   0  0  0  0  0  0  0  0  0  0  0  0
   -1.5574   -0.7500    0.0000 N   0  0  0  0  0  0  0  0  0  0  0  0
   -1.5574    0.7500    0.0000 C   0  0  0  0  0  0  0  0  0  0  0  0
   -0.3846    1.6852    0.0000 C   0  0  0  0  0  0  0  0  0  0  0  0
   -0.7184    3.1476    0.0000 N   0  0  0  0  0  0  0  0  0  0  0  0
   -2.1518    3.5898    0.0000 C   0  0  0  0  0  0  0  0  0  0  0  0
   -3.2514    2.5695    0.0000 O   0  0  0  0  0  0  0  0  0  0  0  0
   -2.4856    5.0522    0.0000 C   0  0  0  0  0  0  0  0  0  0  0  0
   -1.3860    6.0724    0.0000 C   0  0  0  0  0  0  0  0  0  0  0  0
   -1.7198    7.5348    0.0000 C   0  0  0  0  0  0  0  0  0  0  0  0
   -3.1531    7.9769    0.0000 N   0  0  0  0  0  0  0  0  0  0  0  0
   -4.2527    6.9567    0.0000 C   0  0  0  0  0  0  0  0  0  0  0  0
   -3.9189    5.4943    0.0000 C   0  0  0  0  0  0  0  0  0  0  0  0
    5.9147    3.2498    0.0000 C   0  0  0  0  0  0  0  0  0  0  0  0
    6.8499    4.4226    0.0000 C   0  0  0  0  0  0  0  0  0  0  0  0
    9.2684    5.3718    0.0000 C   0  0  0  0  0  0  0  0  0  0  0  0
    8.3332    4.1990    0.0000 F   0  0  0  0  0  0  0  0  0  0  0  0
  1  2  1  0
  2  3  1  0
  2  4  1  0
  4  5  1  0
  5  6  1  0
  6  7  1  0
  7  8  1  0
  8  9  1  0
  9 10  2  0
 10 11  1  0
 11 12  2  0
 12 13  1  0
 12 14  1  0
 14 15  1  0
 15 16  2  0
 15 17  1  0
 17 18  2  0
 18 19  1  0
 19 20  2  0
 20 21  1  0
 21 22  2  0
 21 23  1  0
 24 23  1  6
 24 25  1  0
 25 26  1  0
 26 27  1  0
 27 28  1  0
 28 29  1  0
 29 30  1  0
 30 31  1  1
 31 32  1  0
 32 33  2  0
 32 34  1  0
 34 35  2  0
 35 36  1  0
 36 37  2  0
 37 38  1  0
 38 39  2  0
 20 40  1  0
 40 41  2  0
 14 42  2  0
 42 43  1  0
  8  2  1  0
 42  9  1  0
 41 17  1  0
 30 24  1  0
 39 34  1  0
M  END
>  <Compound_ID>  (35) 
CHEMBL536485

>  <Active>  (35) 
1

>  <Smiles>  (35) 
CC1(C)CCCNC1c1ccc(O)c(C(=O)c2ccc(C(=O)N[C@@H]3CCCNC[C@H]3NC(=O)c3ccncc3)cc2)c1F

>  <canonical_smi>  (35) 
CC1(C)CCCNC1c1ccc(O)c(C(=O)c2ccc(C(=O)N[C@@H]3CCCNC[C@H]3NC(=O)c3ccncc3)cc2)c1F

>  <Set>  (35) 
G1 active

>  <Set_type>  (35) 
G1

>  <MW>  (35) 
587.7

>  <HBD>  (35) 
5

>  <HBA>  (35) 
7

>  <NRB>  (35) 
7

>  <NR>  (35) 
5

>  <NAR>  (35) 
3

>  <PSA>  (35) 
132.45

>  <Standard Type>  (35) 
nan

>  <Standard Relation>  (35) 
nan

>  <Standard Units>  (35) 
nan

>  <Standard Value>  (35) 
nan

>  <Assay ChEMBL ID>  (35) 
nan

>  <Assay Description>  (35) 
nan

>  <BAO Label>  (35) 
nan

$$$$

     RDKit          2D

 28 30  0  0  0  0  0  0  0  0999 V2000
   -3.0000   -4.0981    0.0000 O   0  0  0  0  0  0  0  0  0  0  0  0
   -3.0000   -2.5981    0.0000 S   0  0  0  0  0  0  0  0  0  0  0  0
   -3.0000   -1.0981    0.0000 O   0  0  0  0  0  0  0  0  0  0  0  0
   -4.5000   -2.5981    0.0000 N   0  0  0  0  0  0  0  0  0  0  0  0
   -5.2500   -1.2990    0.0000 C   0  0  0  0  0  0  0  0  0  0  0  0
   -6.7500   -1.2990    0.0000 C   0  0  0  0  0  0  0  0  0  0  0  0
   -7.5000    0.0000    0.0000 N   0  0  0  0  0  0  0  0  0  0  0  0
   -9.0000    0.0000    0.0000 C   0  0  0  0  0  0  0  0  0  0  0  0
   -9.7500    1.2990    0.0000 C   0  0  0  0  0  0  0  0  0  0  0  0
  -11.2500    1.2990    0.0000 O   0  0  0  0  0  0  0  0  0  0  0  0
  -12.0000    2.5981    0.0000 C   0  0  0  0  0  0  0  0  0  0  0  0
  -13.5000    2.5981    0.0000 C   0  0  0  0  0  0  0  0  0  0  0  0
  -14.2500    3.8971    0.0000 C   0  0  0  0  0  0  0  0  0  0  0  0
  -15.7500    3.8971    0.0000 C   0  0  0  0  0  0  0  0  0  0  0  0
  -16.5000    2.5981    0.0000 C   0  0  0  0  0  0  0  0  0  0  0  0
  -18.0000    2.5981    0.0000 Cl  0  0  0  0  0  0  0  0  0  0  0  0
  -15.7500    1.2990    0.0000 C   0  0  0  0  0  0  0  0  0  0  0  0
  -14.2500    1.2990    0.0000 C   0  0  0  0  0  0  0  0  0  0  0  0
   -1.5000   -2.5981    0.0000 C   0  0  0  0  0  0  0  0  0  0  0  0
   -0.7500   -3.8971    0.0000 C   0  0  0  0  0  0  0  0  0  0  0  0
    0.7500   -3.8971    0.0000 C   0  0  0  0  0  0  0  0  0  0  0  0
    1.5000   -2.5981    0.0000 C   0  0  0  0  0  0  0  0  0  0  0  0
    0.7500   -1.2990    0.0000 C   0  0  0  0  0  0  0  0  0  0  0  0
    1.5000    0.0000    0.0000 C   0  0  0  0  0  0  0  0  0  0  0  0
    0.7500    1.2990    0.0000 N   0  0  0  0  0  0  0  0  0  0  0  0
   -0.7500    1.2990    0.0000 C   0  0  0  0  0  0  0  0  0  0  0  0
   -1.5000    0.0000    0.0000 C   0  0  0  0  0  0  0  0  0  0  0  0
   -0.7500   -1.2990    0.0000 C   0  0  0  0  0  0  0  0  0  0  0  0
  1  2  2  0
  2  3  2  0
  2  4  1  0
  4  5  1  0
  5  6  1  0
  6  7  1  0
  7  8  1  0
  8  9  1  0
  9 10  1  0
 10 11  1  0
 11 12  1  0
 12 13  2  0
 13 14  1  0
 14 15  2  0
 15 16  1  0
 15 17  1  0
 17 18  2  0
  2 19  1  0
 19 20  2  0
 20 21  1  0
 21 22  2  0
 22 23  1  0
 23 24  2  0
 24 25  1  0
 25 26  2  0
 26 27  1  0
 27 28  2  0
 18 12  1  0
 28 19  1  0
 28 23  1  0
M  END
>  <Compound_ID>  (36) 
CHEMBL227381

>  <Active>  (36) 
1

>  <Smiles>  (36) 
O=S(=O)(NCCNCCOCc1ccc(Cl)cc1)c1cccc2cnccc12

>  <canonical_smi>  (36) 
O=S(=O)(NCCNCCOCc1ccc(Cl)cc1)c1cccc2cnccc12

>  <Set>  (36) 
G1 active

>  <Set_type>  (36) 
G1

>  <MW>  (36) 
419.93

>  <HBD>  (36) 
2

>  <HBA>  (36) 
5

>  <NRB>  (36) 
10

>  <NR>  (36) 
3

>  <NAR>  (36) 
3

>  <PSA>  (36) 
80.32

>  <Standard Type>  (36) 
nan

>  <Standard Relation>  (36) 
nan

>  <Standard Units>  (36) 
nan

>  <Standard Value>  (36) 
nan

>  <Assay ChEMBL ID>  (36) 
nan

>  <Assay Description>  (36) 
nan

>  <BAO Label>  (36) 
nan

$$$$

     RDKit          2D

 16 18  0  0  0  0  0  0  0  0999 V2000
   -7.8533   -0.1004    0.0000 N   0  0  0  0  0  0  0  0  0  0  0  0
   -6.4268    0.3631    0.0000 C   0  0  0  0  0  0  0  0  0  0  0  0
   -6.1149    1.8303    0.0000 C   0  0  0  0  0  0  0  0  0  0  0  0
   -4.6883    2.2939    0.0000 C   0  0  0  0  0  0  0  0  0  0  0  0
   -3.5736    1.2902    0.0000 N   0  0  0  0  0  0  0  0  0  0  0  0
   -2.1470    1.7537    0.0000 C   0  0  0  0  0  0  0  0  0  0  0  0
   -1.8351    3.2209    0.0000 N   0  0  0  0  0  0  0  0  0  0  0  0
   -0.4086    3.6844    0.0000 C   0  0  0  0  0  0  0  0  0  0  0  0
    0.7062    2.6807    0.0000 N   0  0  0  0  0  0  0  0  0  0  0  0
    0.3943    1.2135    0.0000 C   0  0  0  0  0  0  0  0  0  0  0  0
    1.2760    0.0000    0.0000 N   0  0  0  0  0  0  0  0  0  0  0  0
    0.3943   -1.2135    0.0000 C   0  0  0  0  0  0  0  0  0  0  0  0
   -1.0323   -0.7500    0.0000 N   0  0  0  0  0  0  0  0  0  0  0  0
   -1.0323    0.7500    0.0000 C   0  0  0  0  0  0  0  0  0  0  0  0
   -3.8855   -0.1771    0.0000 C   0  0  0  0  0  0  0  0  0  0  0  0
   -5.3120   -0.6406    0.0000 C   0  0  0  0  0  0  0  0  0  0  0  0
  1  2  1  0
  2  3  1  0
  3  4  1  0
  4  5  1  0
  5  6  1  0
  6  7  2  0
  7  8  1  0
  8  9  2  0
  9 10  1  0
 10 11  1  0
 11 12  1  0
 12 13  2  0
 13 14  1  0
  5 15  1  0
 15 16  1  0
 16  2  1  0
 14  6  1  0
 14 10  2  0
M  END
>  <Compound_ID>  (37) 
CHEMBL261260

>  <Active>  (37) 
1

>  <Smiles>  (37) 
NC1CCN(c2ncnc3[nH]cnc23)CC1

>  <canonical_smi>  (37) 
NC1CCN(c2ncnc3[nH]cnc23)CC1

>  <Set>  (37) 
G1 active

>  <Set_type>  (37) 
G1

>  <MW>  (37) 
218.26

>  <HBD>  (37) 
2

>  <HBA>  (37) 
5

>  <NRB>  (37) 
1

>  <NR>  (37) 
3

>  <NAR>  (37) 
2

>  <PSA>  (37) 
83.72

>  <Standard Type>  (37) 
nan

>  <Standard Relation>  (37) 
nan

>  <Standard Units>  (37) 
nan

>  <Standard Value>  (37) 
nan

>  <Assay ChEMBL ID>  (37) 
nan

>  <Assay Description>  (37) 
nan

>  <BAO Label>  (37) 
nan

$$$$

     RDKit          2D

 21 23  0  0  0  0  0  0  0  0999 V2000
    3.7500   -3.8971    0.0000 N   0  0  0  0  0  0  0  0  0  0  0  0
    3.0000   -2.5981    0.0000 C   0  0  0  0  0  0  0  0  0  0  0  0
    1.5000   -2.5981    0.0000 C   0  0  0  0  0  0  0  0  0  0  0  0
    0.7500   -1.2990    0.0000 C   0  0  0  0  0  0  0  0  0  0  0  0
    1.5000    0.0000    0.0000 C   0  0  0  0  0  0  0  0  0  0  0  0
    0.7500    1.2990    0.0000 C   0  0  0  0  0  0  0  0  0  0  0  0
   -0.7500    1.2990    0.0000 C   0  0  0  0  0  0  0  0  0  0  0  0
   -1.5000    2.5981    0.0000 Cl  0  0  0  0  0  0  0  0  0  0  0  0
   -1.5000    0.0000    0.0000 C   0  0  0  0  0  0  0  0  0  0  0  0
   -0.7500   -1.2990    0.0000 C   0  0  0  0  0  0  0  0  0  0  0  0
    0.7500   -3.8971    0.0000 C   0  0  0  0  0  0  0  0  0  0  0  0
   -0.7500   -3.8971    0.0000 C   0  0  0  0  0  0  0  0  0  0  0  0
   -1.5000   -5.1962    0.0000 C   0  0  0  0  0  0  0  0  0  0  0  0
   -0.7500   -6.4952    0.0000 C   0  0  0  0  0  0  0  0  0  0  0  0
   -1.5000   -7.7942    0.0000 C   0  0  0  0  0  0  0  0  0  0  0  0
   -0.8899   -9.1645    0.0000 C   0  0  0  0  0  0  0  0  0  0  0  0
   -2.0046  -10.1682    0.0000 N   0  0  0  0  0  0  0  0  0  0  0  0
   -3.3037   -9.4182    0.0000 N   0  0  0  0  0  0  0  0  0  0  0  0
   -2.9918   -7.9510    0.0000 C   0  0  0  0  0  0  0  0  0  0  0  0
    0.7500   -6.4952    0.0000 C   0  0  0  0  0  0  0  0  0  0  0  0
    1.5000   -5.1962    0.0000 C   0  0  0  0  0  0  0  0  0  0  0  0
  1  2  1  0
  3  2  1  1
  3  4  1  0
  4  5  2  0
  5  6  1  0
  6  7  2  0
  7  8  1  0
  7  9  1  0
  9 10  2  0
  3 11  1  0
 11 12  2  0
 12 13  1  0
 13 14  2  0
 14 15  1  0
 15 16  1  0
 16 17  2  0
 17 18  1  0
 18 19  1  0
 14 20  1  0
 20 21  2  0
 10  4  1  0
 21 11  1  0
 19 15  2  0
M  END
>  <Compound_ID>  (38) 
CHEMBL223339

>  <Active>  (38) 
1

>  <Smiles>  (38) 
NC[C@H](c1ccc(Cl)cc1)c1ccc(-c2cn[nH]c2)cc1

>  <canonical_smi>  (38) 
NC[C@H](c1ccc(Cl)cc1)c1ccc(-c2cn[nH]c2)cc1

>  <Set>  (38) 
G1 active

>  <Set_type>  (38) 
G1

>  <MW>  (38) 
297.79

>  <HBD>  (38) 
2

>  <HBA>  (38) 
2

>  <NRB>  (38) 
4

>  <NR>  (38) 
3

>  <NAR>  (38) 
3

>  <PSA>  (38) 
54.7

>  <Standard Type>  (38) 
nan

>  <Standard Relation>  (38) 
nan

>  <Standard Units>  (38) 
nan

>  <Standard Value>  (38) 
nan

>  <Assay ChEMBL ID>  (38) 
nan

>  <Assay Description>  (38) 
nan

>  <BAO Label>  (38) 
nan

$$$$

     RDKit          2D

 42 48  0  0  0  0  0  0  0  0999 V2000
    3.7500    1.2990    0.0000 O   0  0  0  0  0  0  0  0  0  0  0  0
    3.0000    0.0000    0.0000 C   0  0  0  0  0  0  0  0  0  0  0  0
    3.7500   -1.2990    0.0000 O   0  0  0  0  0  0  0  0  0  0  0  0
    1.5000    0.0000    0.0000 C   0  0  0  0  0  0  0  0  0  0  0  0
    0.7500   -1.2990    0.0000 C   0  0  0  0  0  0  0  0  0  0  0  0
   -0.7500   -1.2990    0.0000 C   0  0  0  0  0  0  0  0  0  0  0  0
   -1.5000    0.0000    0.0000 C   0  0  0  0  0  0  0  0  0  0  0  0
   -3.0000    0.0000    0.0000 N   0  0  0  0  0  0  0  0  0  0  0  0
   -3.7500    1.2990    0.0000 C   0  0  0  0  0  0  0  0  0  0  0  0
   -5.2500    1.2990    0.0000 C   0  0  0  0  0  0  0  0  0  0  0  0
   -6.0000    2.5981    0.0000 C   0  0  0  0  0  0  0  0  0  0  0  0
   -7.5000    2.5981    0.0000 C   0  0  0  0  0  0  0  0  0  0  0  0
   -8.2500    1.2990    0.0000 C   0  0  0  0  0  0  0  0  0  0  0  0
   -9.7500    1.2990    0.0000 C   0  0  0  0  0  0  0  0  0  0  0  0
  -10.5000    2.5981    0.0000 N   0  0  0  0  0  0  0  0  0  0  0  0
   -9.7500    3.8971    0.0000 C   0  0  0  0  0  0  0  0  0  0  0  0
  -10.5000    5.1962    0.0000 C   0  0  0  0  0  0  0  0  0  0  0  0
  -12.0000    5.1962    0.0000 C   0  0  0  0  0  0  0  0  0  0  0  0
  -12.7500    6.4952    0.0000 N   0  0  0  0  0  0  0  0  0  0  0  0
  -12.1399    7.8655    0.0000 C   0  0  0  0  0  0  0  0  0  0  0  0
  -10.6727    8.1774    0.0000 O   0  0  0  0  0  0  0  0  0  0  0  0
  -13.2546    8.8692    0.0000 N   0  0  0  0  0  0  0  0  0  0  0  0
  -14.5537    8.1192    0.0000 C   0  0  0  0  0  0  0  0  0  0  0  0
  -15.9802    8.5827    0.0000 C   0  0  0  0  0  0  0  0  0  0  0  0
  -17.0950    7.5790    0.0000 C   0  0  0  0  0  0  0  0  0  0  0  0
  -16.7831    6.1118    0.0000 C   0  0  0  0  0  0  0  0  0  0  0  0
  -15.3565    5.6483    0.0000 C   0  0  0  0  0  0  0  0  0  0  0  0
  -14.2418    6.6520    0.0000 C   0  0  0  0  0  0  0  0  0  0  0  0
  -12.7500    3.8971    0.0000 C   0  0  0  0  0  0  0  0  0  0  0  0
  -12.0000    2.5981    0.0000 C   0  0  0  0  0  0  0  0  0  0  0  0
   -7.5000    0.0000    0.0000 C   0  0  0  0  0  0  0  0  0  0  0  0
   -6.0000    0.0000    0.0000 C   0  0  0  0  0  0  0  0  0  0  0  0
   -3.0000    2.5981    0.0000 C   0  0  0  0  0  0  0  0  0  0  0  0
   -3.7500    3.8971    0.0000 C   0  0  0  0  0  0  0  0  0  0  0  0
   -3.0000    5.1962    0.0000 C   0  0  0  0  0  0  0  0  0  0  0  0
   -3.7500    6.4952    0.0000 C   0  0  0  0  0  0  0  0  0  0  0  0
   -5.2500    6.4952    0.0000 C   0  0  0  0  0  0  0  0  0  0  0  0
   -6.0000    5.1962    0.0000 C   0  0  0  0  0  0  0  0  0  0  0  0
   -5.2500    3.8971    0.0000 C   0  0  0  0  0  0  0  0  0  0  0  0
   -1.5000    2.5981    0.0000 N   0  0  0  0  0  0  0  0  0  0  0  0
   -0.7500    1.2990    0.0000 C   0  0  0  0  0  0  0  0  0  0  0  0
    0.7500    1.2990    0.0000 C   0  0  0  0  0  0  0  0  0  0  0  0
  1  2  2  0
  2  3  1  0
  2  4  1  0
  4  5  2  0
  5  6  1  0
  6  7  2  0
  7  8  1  0
  8  9  2  0
  9 10  1  0
 10 11  2  0
 11 12  1  0
 12 13  2  0
 13 14  1  0
 14 15  1  0
 15 16  1  0
 16 17  1  0
 17 18  1  0
 18 19  1  0
 19 20  1  0
 20 21  2  0
 20 22  1  0
 22 23  1  0
 23 24  2  0
 24 25  1  0
 25 26  2  0
 26 27  1  0
 27 28  2  0
 18 29  1  0
 29 30  1  0
 13 31  1  0
 31 32  2  0
  9 33  1  0
 33 34  1  0
 34 35  2  0
 35 36  1  0
 36 37  2  0
 37 38  1  0
 38 39  2  0
 33 40  2  0
 40 41  1  0
 41 42  2  0
 42  4  1  0
 41  7  1  0
 32 10  1  0
 39 34  1  0
 30 15  1  0
 28 19  1  0
 28 23  1  0
M  END
>  <Compound_ID>  (39) 
CHEMBL272292

>  <Active>  (39) 
1

>  <Smiles>  (39) 
O=C(O)c1ccc2nc(-c3ccc(CN4CCC(n5c(=O)[nH]c6ccccc65)CC4)cc3)c(-c3ccccc3)nc2c1

>  <canonical_smi>  (39) 
O=C(O)c1ccc2nc(-c3ccc(CN4CCC(n5c(=O)[nH]c6ccccc65)CC4)cc3)c(-c3ccccc3)nc2c1

>  <Set>  (39) 
G1 active

>  <Set_type>  (39) 
G1

>  <MW>  (39) 
555.64

>  <HBD>  (39) 
2

>  <HBA>  (39) 
6

>  <NRB>  (39) 
6

>  <NR>  (39) 
7

>  <NAR>  (39) 
6

>  <PSA>  (39) 
104.11

>  <Standard Type>  (39) 
nan

>  <Standard Relation>  (39) 
nan

>  <Standard Units>  (39) 
nan

>  <Standard Value>  (39) 
nan

>  <Assay ChEMBL ID>  (39) 
nan

>  <Assay Description>  (39) 
nan

>  <BAO Label>  (39) 
nan

$$$$

     RDKit          2D

 27 29  0  0  0  0  0  0  0  0999 V2000
   -3.0000   -4.0981    0.0000 O   0  0  0  0  0  0  0  0  0  0  0  0
   -3.0000   -2.5981    0.0000 S   0  0  0  0  0  0  0  0  0  0  0  0
   -3.0000   -1.0981    0.0000 O   0  0  0  0  0  0  0  0  0  0  0  0
   -4.5000   -2.5981    0.0000 N   0  0  0  0  0  0  0  0  0  0  0  0
   -5.2500   -1.2990    0.0000 C   0  0  0  0  0  0  0  0  0  0  0  0
   -6.7500   -1.2990    0.0000 C   0  0  0  0  0  0  0  0  0  0  0  0
   -7.5000    0.0000    0.0000 N   0  0  0  0  0  0  0  0  0  0  0  0
   -9.0000    0.0000    0.0000 C   0  0  0  0  0  0  0  0  0  0  0  0
   -9.7500    1.2990    0.0000 C   0  0  0  0  0  0  0  0  0  0  0  0
  -11.2500    1.2990    0.0000 C   0  0  0  0  0  0  0  0  0  0  0  0
  -12.0000    2.5981    0.0000 C   0  0  0  0  0  0  0  0  0  0  0  0
  -11.2500    3.8971    0.0000 C   0  0  0  0  0  0  0  0  0  0  0  0
  -12.0000    5.1962    0.0000 C   0  0  0  0  0  0  0  0  0  0  0  0
  -13.5000    5.1962    0.0000 C   0  0  0  0  0  0  0  0  0  0  0  0
  -14.2500    6.4952    0.0000 Br  0  0  0  0  0  0  0  0  0  0  0  0
  -14.2500    3.8971    0.0000 C   0  0  0  0  0  0  0  0  0  0  0  0
  -13.5000    2.5981    0.0000 C   0  0  0  0  0  0  0  0  0  0  0  0
   -1.5000   -2.5981    0.0000 C   0  0  0  0  0  0  0  0  0  0  0  0
   -0.7500   -3.8971    0.0000 C   0  0  0  0  0  0  0  0  0  0  0  0
    0.7500   -3.8971    0.0000 C   0  0  0  0  0  0  0  0  0  0  0  0
    1.5000   -2.5981    0.0000 C   0  0  0  0  0  0  0  0  0  0  0  0
    0.7500   -1.2990    0.0000 C   0  0  0  0  0  0  0  0  0  0  0  0
    1.5000    0.0000    0.0000 C   0  0  0  0  0  0  0  0  0  0  0  0
    0.7500    1.2990    0.0000 N   0  0  0  0  0  0  0  0  0  0  0  0
   -0.7500    1.2990    0.0000 C   0  0  0  0  0  0  0  0  0  0  0  0
   -1.5000    0.0000    0.0000 C   0  0  0  0  0  0  0  0  0  0  0  0
   -0.7500   -1.2990    0.0000 C   0  0  0  0  0  0  0  0  0  0  0  0
  1  2  2  0
  2  3  2  0
  2  4  1  0
  4  5  1  0
  5  6  1  0
  6  7  1  0
  7  8  1  0
  8  9  1  0
  9 10  2  0
 10 11  1  0
 11 12  2  0
 12 13  1  0
 13 14  2  0
 14 15  1  0
 14 16  1  0
 16 17  2  0
  2 18  1  0
 18 19  2  0
 19 20  1  0
 20 21  2  0
 21 22  1  0
 22 23  2  0
 23 24  1  0
 24 25  2  0
 25 26  1  0
 26 27  2  0
 17 11  1  0
 27 18  1  0
 27 22  1  0
M  END
>  <Compound_ID>  (40) 
CHEMBL104264

>  <Active>  (40) 
1

>  <Smiles>  (40) 
O=S(=O)(NCCNC/C=C/c1ccc(Br)cc1)c1cccc2cnccc12

>  <canonical_smi>  (40) 
O=S(=O)(NCCNC/C=C/c1ccc(Br)cc1)c1cccc2cnccc12

>  <Set>  (40) 
G1 active

>  <Set_type>  (40) 
G1

>  <MW>  (40) 
446.37

>  <HBD>  (40) 
2

>  <HBA>  (40) 
4

>  <NRB>  (40) 
8

>  <NR>  (40) 
3

>  <NAR>  (40) 
3

>  <PSA>  (40) 
71.09

>  <Standard Type>  (40) 
nan

>  <Standard Relation>  (40) 
nan

>  <Standard Units>  (40) 
nan

>  <Standard Value>  (40) 
nan

>  <Assay ChEMBL ID>  (40) 
nan

>  <Assay Description>  (40) 
nan

>  <BAO Label>  (40) 
nan

$$$$

     RDKit          2D

 40 45  0  0  0  0  0  0  0  0999 V2000
  -15.5257    4.9171    0.0000 C   0  0  0  0  0  0  0  0  0  0  0  0
  -14.4110    3.9134    0.0000 C   0  0  0  0  0  0  0  0  0  0  0  0
  -12.9844    4.3769    0.0000 C   0  0  0  0  0  0  0  0  0  0  0  0
  -14.7229    2.4461    0.0000 C   0  0  0  0  0  0  0  0  0  0  0  0
  -13.6082    1.4425    0.0000 C   0  0  0  0  0  0  0  0  0  0  0  0
  -12.1816    1.9060    0.0000 N   0  0  0  0  0  0  0  0  0  0  0  0
  -11.0669    0.9023    0.0000 C   0  0  0  0  0  0  0  0  0  0  0  0
   -9.6403    1.3658    0.0000 C   0  0  0  0  0  0  0  0  0  0  0  0
   -8.5256    0.3621    0.0000 C   0  0  0  0  0  0  0  0  0  0  0  0
   -7.0990    0.8256    0.0000 C   0  0  0  0  0  0  0  0  0  0  0  0
   -6.7871    2.2929    0.0000 C   0  0  0  0  0  0  0  0  0  0  0  0
   -7.9018    3.2966    0.0000 C   0  0  0  0  0  0  0  0  0  0  0  0
   -9.3284    2.8330    0.0000 C   0  0  0  0  0  0  0  0  0  0  0  0
  -11.3787   -0.5649    0.0000 C   0  0  0  0  0  0  0  0  0  0  0  0
  -10.2640   -1.5686    0.0000 C   0  0  0  0  0  0  0  0  0  0  0  0
  -10.5759   -3.0359    0.0000 C   0  0  0  0  0  0  0  0  0  0  0  0
   -9.4612   -4.0396    0.0000 C   0  0  0  0  0  0  0  0  0  0  0  0
   -8.0346   -3.5760    0.0000 C   0  0  0  0  0  0  0  0  0  0  0  0
   -6.9199   -4.5797    0.0000 C   0  0  0  0  0  0  0  0  0  0  0  0
   -5.4933   -4.1162    0.0000 N   0  0  0  0  0  0  0  0  0  0  0  0
   -4.3786   -5.1199    0.0000 C   0  0  0  0  0  0  0  0  0  0  0  0
   -2.9520   -4.6564    0.0000 C   0  0  0  0  0  0  0  0  0  0  0  0
   -2.6401   -3.1891    0.0000 C   0  0  0  0  0  0  0  0  0  0  0  0
   -1.2135   -2.7256    0.0000 N   0  0  0  0  0  0  0  0  0  0  0  0
   -0.0000   -3.6073    0.0000 C   0  0  0  0  0  0  0  0  0  0  0  0
    0.0000   -5.1073    0.0000 O   0  0  0  0  0  0  0  0  0  0  0  0
    1.2135   -2.7256    0.0000 N   0  0  0  0  0  0  0  0  0  0  0  0
    0.7500   -1.2990    0.0000 C   0  0  0  0  0  0  0  0  0  0  0  0
    1.5000    0.0000    0.0000 C   0  0  0  0  0  0  0  0  0  0  0  0
    0.7500    1.2990    0.0000 C   0  0  0  0  0  0  0  0  0  0  0  0
   -0.7500    1.2990    0.0000 C   0  0  0  0  0  0  0  0  0  0  0  0
   -1.5000    0.0000    0.0000 C   0  0  0  0  0  0  0  0  0  0  0  0
   -0.7500   -1.2990    0.0000 C   0  0  0  0  0  0  0  0  0  0  0  0
   -3.7548   -2.1855    0.0000 C   0  0  0  0  0  0  0  0  0  0  0  0
   -5.1814   -2.6490    0.0000 C   0  0  0  0  0  0  0  0  0  0  0  0
   -7.7227   -2.1088    0.0000 C   0  0  0  0  0  0  0  0  0  0  0  0
   -8.8374   -1.1051    0.0000 C   0  0  0  0  0  0  0  0  0  0  0  0
  -12.8053   -1.0285    0.0000 N   0  0  0  0  0  0  0  0  0  0  0  0
  -13.9200   -0.0248    0.0000 C   0  0  0  0  0  0  0  0  0  0  0  0
  -15.3466   -0.4883    0.0000 O   0  0  0  0  0  0  0  0  0  0  0  0
  1  2  1  0
  2  3  1  0
  2  4  1  0
  4  5  1  0
  5  6  2  0
  6  7  1  0
  7  8  1  0
  8  9  2  0
  9 10  1  0
 10 11  2  0
 11 12  1  0
 12 13  2  0
  7 14  2  0
 14 15  1  0
 15 16  2  0
 16 17  1  0
 17 18  2  0
 18 19  1  0
 19 20  1  0
 20 21  1  0
 21 22  1  0
 22 23  1  0
 23 24  1  0
 24 25  1  0
 25 26  1  0
 25 27  2  0
 27 28  1  0
 28 29  2  0
 29 30  1  0
 30 31  2  0
 31 32  1  0
 32 33  2  0
 23 34  1  0
 34 35  1  0
 18 36  1  0
 36 37  2  0
 14 38  1  0
 38 39  1  0
 39 40  1  0
 39  5  1  0
 13  8  1  0
 37 15  1  0
 35 20  1  0
 33 24  1  0
 33 28  1  0
M  END
>  <Compound_ID>  (41) 
CHEMBL369506

>  <Active>  (41) 
1

>  <Smiles>  (41) 
CC(C)CC1=NC(c2ccccc2)=C(c2ccc(CN3CCC(n4c(O)nc5ccccc54)CC3)cc2)NC1O

>  <canonical_smi>  (41) 
CC(C)CC1=NC(c2ccccc2)=C(c2ccc(CN3CCC(n4c(O)nc5ccccc54)CC3)cc2)NC1O

>  <Set>  (41) 
G1 active

>  <Set_type>  (41) 
G1

>  <MW>  (41) 
535.69

>  <HBD>  (41) 
3

>  <HBA>  (41) 
5

>  <NRB>  (41) 
7

>  <NR>  (41) 
6

>  <NAR>  (41) 
4

>  <PSA>  (41) 
85.91

>  <Standard Type>  (41) 
nan

>  <Standard Relation>  (41) 
nan

>  <Standard Units>  (41) 
nan

>  <Standard Value>  (41) 
nan

>  <Assay ChEMBL ID>  (41) 
nan

>  <Assay Description>  (41) 
nan

>  <BAO Label>  (41) 
nan

$$$$

     RDKit          2D

 45 52  0  0  0  0  0  0  0  0999 V2000
    1.8478   -6.4639    0.0000 C   0  0  0  0  0  0  0  0  0  0  0  0
    2.0046   -4.9721    0.0000 N   0  0  0  0  0  0  0  0  0  0  0  0
    3.3037   -4.2221    0.0000 N   0  0  0  0  0  0  0  0  0  0  0  0
    2.9918   -2.7549    0.0000 N   0  0  0  0  0  0  0  0  0  0  0  0
    1.5000   -2.5981    0.0000 C   0  0  0  0  0  0  0  0  0  0  0  0
    0.7500   -1.2990    0.0000 C   0  0  0  0  0  0  0  0  0  0  0  0
    1.5000    0.0000    0.0000 C   0  0  0  0  0  0  0  0  0  0  0  0
    0.7500    1.2990    0.0000 C   0  0  0  0  0  0  0  0  0  0  0  0
   -0.7500    1.2990    0.0000 C   0  0  0  0  0  0  0  0  0  0  0  0
   -1.5000    2.5981    0.0000 N   0  0  0  0  0  0  0  0  0  0  0  0
   -3.0000    2.5981    0.0000 C   0  0  0  0  0  0  0  0  0  0  0  0
   -3.7500    3.8971    0.0000 C   0  0  0  0  0  0  0  0  0  0  0  0
   -3.0000    5.1962    0.0000 C   0  0  0  0  0  0  0  0  0  0  0  0
   -3.7500    6.4952    0.0000 C   0  0  0  0  0  0  0  0  0  0  0  0
   -5.2500    6.4952    0.0000 C   0  0  0  0  0  0  0  0  0  0  0  0
   -6.0000    5.1962    0.0000 C   0  0  0  0  0  0  0  0  0  0  0  0
   -5.2500    3.8971    0.0000 C   0  0  0  0  0  0  0  0  0  0  0  0
   -3.7500    1.2990    0.0000 C   0  0  0  0  0  0  0  0  0  0  0  0
   -5.2500    1.2990    0.0000 C   0  0  0  0  0  0  0  0  0  0  0  0
   -6.0000    2.5981    0.0000 C   0  0  0  0  0  0  0  0  0  0  0  0
   -7.5000    2.5981    0.0000 C   0  0  0  0  0  0  0  0  0  0  0  0
   -8.2500    1.2990    0.0000 C   0  0  0  0  0  0  0  0  0  0  0  0
   -9.7500    1.2990    0.0000 C   0  0  0  0  0  0  0  0  0  0  0  0
  -10.5000    2.5981    0.0000 N   0  0  0  0  0  0  0  0  0  0  0  0
   -9.7500    3.8971    0.0000 C   0  0  0  0  0  0  0  0  0  0  0  0
  -10.5000    5.1962    0.0000 C   0  0  0  0  0  0  0  0  0  0  0  0
  -12.0000    5.1962    0.0000 C   0  0  0  0  0  0  0  0  0  0  0  0
  -12.7500    6.4952    0.0000 N   0  0  0  0  0  0  0  0  0  0  0  0
  -12.1399    7.8655    0.0000 C   0  0  0  0  0  0  0  0  0  0  0  0
  -10.6727    8.1774    0.0000 O   0  0  0  0  0  0  0  0  0  0  0  0
  -13.2546    8.8692    0.0000 N   0  0  0  0  0  0  0  0  0  0  0  0
  -14.5537    8.1192    0.0000 C   0  0  0  0  0  0  0  0  0  0  0  0
  -15.9802    8.5827    0.0000 C   0  0  0  0  0  0  0  0  0  0  0  0
  -17.0950    7.5790    0.0000 C   0  0  0  0  0  0  0  0  0  0  0  0
  -16.7831    6.1118    0.0000 C   0  0  0  0  0  0  0  0  0  0  0  0
  -15.3565    5.6483    0.0000 C   0  0  0  0  0  0  0  0  0  0  0  0
  -14.2418    6.6520    0.0000 C   0  0  0  0  0  0  0  0  0  0  0  0
  -12.7500    3.8971    0.0000 C   0  0  0  0  0  0  0  0  0  0  0  0
  -12.0000    2.5981    0.0000 C   0  0  0  0  0  0  0  0  0  0  0  0
   -7.5000    0.0000    0.0000 C   0  0  0  0  0  0  0  0  0  0  0  0
   -6.0000    0.0000    0.0000 C   0  0  0  0  0  0  0  0  0  0  0  0
   -3.0000    0.0000    0.0000 N   0  0  0  0  0  0  0  0  0  0  0  0
   -1.5000    0.0000    0.0000 C   0  0  0  0  0  0  0  0  0  0  0  0
   -0.7500   -1.2990    0.0000 C   0  0  0  0  0  0  0  0  0  0  0  0
    0.8899   -3.9684    0.0000 N   0  0  0  0  0  0  0  0  0  0  0  0
  1  2  1  0
  2  3  1  0
  3  4  2  0
  4  5  1  0
  5  6  1  0
  6  7  2  0
  7  8  1  0
  8  9  2  0
  9 10  1  0
 10 11  2  0
 11 12  1  0
 12 13  2  0
 13 14  1  0
 14 15  2  0
 15 16  1  0
 16 17  2  0
 11 18  1  0
 18 19  1  0
 19 20  2  0
 20 21  1  0
 21 22  2  0
 22 23  1  0
 23 24  1  0
 24 25  1  0
 25 26  1  0
 26 27  1  0
 27 28  1  0
 28 29  1  0
 29 30  1  0
 29 31  2  0
 31 32  1  0
 32 33  2  0
 33 34  1  0
 34 35  2  0
 35 36  1  0
 36 37  2  0
 27 38  1  0
 38 39  1  0
 22 40  1  0
 40 41  2  0
 18 42  2  0
 42 43  1  0
 43 44  2  0
  5 45  2  0
 45  2  1  0
 44  6  1  0
 43  9  1  0
 17 12  1  0
 41 19  1  0
 39 24  1  0
 37 28  1  0
 37 32  1  0
M  END
>  <Compound_ID>  (42) 
CHEMBL180058

>  <Active>  (42) 
1

>  <Smiles>  (42) 
Cn1nnc(-c2ccc3nc(-c4ccccc4)c(-c4ccc(CN5CCC(n6c(O)nc7ccccc76)CC5)cc4)nc3c2)n1

>  <canonical_smi>  (42) 
Cn1nnc(-c2ccc3nc(-c4ccccc4)c(-c4ccc(CN5CCC(n6c(O)nc7ccccc76)CC5)cc4)nc3c2)n1

>  <Set>  (42) 
G1 active

>  <Set_type>  (42) 
G1

>  <MW>  (42) 
593.7

>  <HBD>  (42) 
1

>  <HBA>  (42) 
8

>  <NRB>  (42) 
6

>  <NR>  (42) 
8

>  <NAR>  (42) 
7

>  <PSA>  (42) 
110.67

>  <Standard Type>  (42) 
nan

>  <Standard Relation>  (42) 
nan

>  <Standard Units>  (42) 
nan

>  <Standard Value>  (42) 
nan

>  <Assay ChEMBL ID>  (42) 
nan

>  <Assay Description>  (42) 
nan

>  <BAO Label>  (42) 
nan

$$$$

     RDKit          2D

 40 46  0  0  0  0  0  0  0  0999 V2000
    3.0000    0.0000    0.0000 C   0  0  0  0  0  0  0  0  0  0  0  0
    1.5000    0.0000    0.0000 C   0  0  0  0  0  0  0  0  0  0  0  0
    0.7500   -1.2990    0.0000 C   0  0  0  0  0  0  0  0  0  0  0  0
   -0.7500   -1.2990    0.0000 C   0  0  0  0  0  0  0  0  0  0  0  0
   -1.5000    0.0000    0.0000 C   0  0  0  0  0  0  0  0  0  0  0  0
   -2.9672    0.3119    0.0000 N   0  0  0  0  0  0  0  0  0  0  0  0
   -3.1240    1.8037    0.0000 C   0  0  0  0  0  0  0  0  0  0  0  0
   -4.4231    2.5537    0.0000 C   0  0  0  0  0  0  0  0  0  0  0  0
   -4.4231    4.0537    0.0000 C   0  0  0  0  0  0  0  0  0  0  0  0
   -5.7221    4.8037    0.0000 C   0  0  0  0  0  0  0  0  0  0  0  0
   -7.0211    4.0537    0.0000 N   0  0  0  0  0  0  0  0  0  0  0  0
   -8.3202    4.8037    0.0000 C   0  0  0  0  0  0  0  0  0  0  0  0
   -8.3202    6.3037    0.0000 C   0  0  0  0  0  0  0  0  0  0  0  0
   -7.0211    7.0537    0.0000 C   0  0  0  0  0  0  0  0  0  0  0  0
   -7.0211    8.5537    0.0000 C   0  0  0  0  0  0  0  0  0  0  0  0
   -8.3202    9.3037    0.0000 C   0  0  0  0  0  0  0  0  0  0  0  0
   -8.3202   10.8037    0.0000 C   0  0  0  0  0  0  0  0  0  0  0  0
   -7.0211   11.5537    0.0000 N   0  0  0  0  0  0  0  0  0  0  0  0
   -7.0211   13.0537    0.0000 C   0  0  0  0  0  0  0  0  0  0  0  0
   -8.3202   13.8037    0.0000 C   0  0  0  0  0  0  0  0  0  0  0  0
   -8.3202   15.3037    0.0000 C   0  0  0  0  0  0  0  0  0  0  0  0
   -9.5337   16.1853    0.0000 N   0  0  0  0  0  0  0  0  0  0  0  0
   -9.0702   17.6119    0.0000 N   0  0  0  0  0  0  0  0  0  0  0  0
   -7.5702   17.6119    0.0000 N   0  0  0  0  0  0  0  0  0  0  0  0
   -7.1066   16.1853    0.0000 N   0  0  0  0  0  0  0  0  0  0  0  0
   -9.6192   13.0537    0.0000 C   0  0  0  0  0  0  0  0  0  0  0  0
   -9.6192   11.5537    0.0000 C   0  0  0  0  0  0  0  0  0  0  0  0
  -10.9182   10.8037    0.0000 C   0  0  0  0  0  0  0  0  0  0  0  0
  -12.2173   11.5537    0.0000 C   0  0  0  0  0  0  0  0  0  0  0  0
  -13.5163   10.8037    0.0000 C   0  0  0  0  0  0  0  0  0  0  0  0
  -13.5163    9.3037    0.0000 C   0  0  0  0  0  0  0  0  0  0  0  0
  -12.2173    8.5537    0.0000 C   0  0  0  0  0  0  0  0  0  0  0  0
  -10.9182    9.3037    0.0000 C   0  0  0  0  0  0  0  0  0  0  0  0
   -9.6192    8.5537    0.0000 C   0  0  0  0  0  0  0  0  0  0  0  0
   -9.6192    7.0537    0.0000 C   0  0  0  0  0  0  0  0  0  0  0  0
   -7.0211    2.5537    0.0000 C   0  0  0  0  0  0  0  0  0  0  0  0
   -5.7221    1.8037    0.0000 C   0  0  0  0  0  0  0  0  0  0  0  0
   -1.7537    2.4138    0.0000 N   0  0  0  0  0  0  0  0  0  0  0  0
   -0.7500    1.2990    0.0000 C   0  0  0  0  0  0  0  0  0  0  0  0
    0.7500    1.2990    0.0000 C   0  0  0  0  0  0  0  0  0  0  0  0
  1  2  1  0
  2  3  2  0
  3  4  1  0
  4  5  2  0
  5  6  1  0
  6  7  1  0
  7  8  1  0
  8  9  1  0
  9 10  1  0
 10 11  1  0
 11 12  1  0
 12 13  1  0
 13 14  2  0
 14 15  1  0
 15 16  2  0
 16 17  1  0
 17 18  2  0
 18 19  1  0
 19 20  2  0
 20 21  1  0
 21 22  1  0
 22 23  2  0
 23 24  1  0
 24 25  1  0
 20 26  1  0
 26 27  2  0
 27 28  1  0
 28 29  2  0
 29 30  1  0
 30 31  2  0
 31 32  1  0
 32 33  2  0
 16 34  1  0
 34 35  2  0
 11 36  1  0
 36 37  1  0
  7 38  2  0
 38 39  1  0
 39 40  2  0
 40  2  1  0
 39  5  1  0
 37  8  1  0
 35 13  1  0
 27 17  1  0
 33 28  1  0
 25 21  2  0
M  END
>  <Compound_ID>  (43) 
CHEMBL367601

>  <Active>  (43) 
1

>  <Smiles>  (43) 
Cc1ccc2[nH]c(C3CCN(Cc4ccc(-c5ncc(-c6nn[nH]n6)cc5-c5ccccc5)cc4)CC3)nc2c1

>  <canonical_smi>  (43) 
Cc1ccc2[nH]c(C3CCN(Cc4ccc(-c5ncc(-c6nn[nH]n6)cc5-c5ccccc5)cc4)CC3)nc2c1

>  <Set>  (43) 
G1 active

>  <Set_type>  (43) 
G1

>  <MW>  (43) 
526.65

>  <HBD>  (43) 
2

>  <HBA>  (43) 
6

>  <NRB>  (43) 
6

>  <NR>  (43) 
7

>  <NAR>  (43) 
6

>  <PSA>  (43) 
99.27

>  <Standard Type>  (43) 
nan

>  <Standard Relation>  (43) 
nan

>  <Standard Units>  (43) 
nan

>  <Standard Value>  (43) 
nan

>  <Assay ChEMBL ID>  (43) 
nan

>  <Assay Description>  (43) 
nan

>  <BAO Label>  (43) 
nan

$$$$

     RDKit          2D

 24 27  0  0  0  0  0  0  0  0999 V2000
   -8.1652   -1.5676    0.0000 N   0  0  0  0  0  0  0  0  0  0  0  0
   -7.8533   -0.1004    0.0000 C   0  0  0  0  0  0  0  0  0  0  0  0
   -8.9681    0.9033    0.0000 C   0  0  0  0  0  0  0  0  0  0  0  0
  -10.3946    0.4398    0.0000 C   0  0  0  0  0  0  0  0  0  0  0  0
  -11.5094    1.4435    0.0000 C   0  0  0  0  0  0  0  0  0  0  0  0
  -12.9359    0.9799    0.0000 C   0  0  0  0  0  0  0  0  0  0  0  0
  -13.2478   -0.4873    0.0000 C   0  0  0  0  0  0  0  0  0  0  0  0
  -12.1331   -1.4910    0.0000 C   0  0  0  0  0  0  0  0  0  0  0  0
  -10.7065   -1.0275    0.0000 C   0  0  0  0  0  0  0  0  0  0  0  0
   -6.4268    0.3631    0.0000 C   0  0  0  0  0  0  0  0  0  0  0  0
   -5.3120   -0.6406    0.0000 C   0  0  0  0  0  0  0  0  0  0  0  0
   -3.8855   -0.1771    0.0000 C   0  0  0  0  0  0  0  0  0  0  0  0
   -3.5736    1.2902    0.0000 C   0  0  0  0  0  0  0  0  0  0  0  0
   -2.1470    1.7537    0.0000 C   0  0  0  0  0  0  0  0  0  0  0  0
   -1.8351    3.2209    0.0000 N   0  0  0  0  0  0  0  0  0  0  0  0
   -0.4086    3.6844    0.0000 C   0  0  0  0  0  0  0  0  0  0  0  0
    0.7062    2.6807    0.0000 N   0  0  0  0  0  0  0  0  0  0  0  0
    0.3943    1.2135    0.0000 C   0  0  0  0  0  0  0  0  0  0  0  0
    1.2760    0.0000    0.0000 N   0  0  0  0  0  0  0  0  0  0  0  0
    0.3943   -1.2135    0.0000 C   0  0  0  0  0  0  0  0  0  0  0  0
   -1.0323   -0.7500    0.0000 N   0  0  0  0  0  0  0  0  0  0  0  0
   -1.0323    0.7500    0.0000 C   0  0  0  0  0  0  0  0  0  0  0  0
   -4.6883    2.2939    0.0000 C   0  0  0  0  0  0  0  0  0  0  0  0
   -6.1149    1.8303    0.0000 C   0  0  0  0  0  0  0  0  0  0  0  0
  1  2  1  0
  2  3  1  0
  3  4  1  0
  4  5  2  0
  5  6  1  0
  6  7  2  0
  7  8  1  0
  8  9  2  0
  2 10  1  0
 10 11  2  0
 11 12  1  0
 12 13  2  0
 13 14  1  0
 14 15  2  0
 15 16  1  0
 16 17  2  0
 17 18  1  0
 18 19  1  0
 19 20  1  0
 20 21  2  0
 21 22  1  0
 13 23  1  0
 23 24  2  0
  9  4  1  0
 24 10  1  0
 22 14  1  0
 22 18  2  0
M  END
>  <Compound_ID>  (44) 
CHEMBL227605

>  <Active>  (44) 
1

>  <Smiles>  (44) 
NC(Cc1ccccc1)c1ccc(-c2ncnc3[nH]cnc23)cc1

>  <canonical_smi>  (44) 
NC(Cc1ccccc1)c1ccc(-c2ncnc3[nH]cnc23)cc1

>  <Set>  (44) 
G1 active

>  <Set_type>  (44) 
G1

>  <MW>  (44) 
315.38

>  <HBD>  (44) 
2

>  <HBA>  (44) 
4

>  <NRB>  (44) 
4

>  <NR>  (44) 
4

>  <NAR>  (44) 
4

>  <PSA>  (44) 
80.48

>  <Standard Type>  (44) 
nan

>  <Standard Relation>  (44) 
nan

>  <Standard Units>  (44) 
nan

>  <Standard Value>  (44) 
nan

>  <Assay ChEMBL ID>  (44) 
nan

>  <Assay Description>  (44) 
nan

>  <BAO Label>  (44) 
nan

$$$$

     RDKit          2D

 34 38  0  0  0  0  0  0  0  0999 V2000
    3.7500   -1.2990    0.0000 C   0  0  0  0  0  0  0  0  0  0  0  0
    3.0000    0.0000    0.0000 S   0  0  0  0  0  0  0  0  0  0  0  0
    1.5000    0.0000    0.0000 C   0  0  0  0  0  0  0  0  0  0  0  0
    0.7500   -1.2990    0.0000 N   0  0  0  0  0  0  0  0  0  0  0  0
   -0.7500   -1.2990    0.0000 C   0  0  0  0  0  0  0  0  0  0  0  0
   -1.5000    0.0000    0.0000 C   0  0  0  0  0  0  0  0  0  0  0  0
   -3.0000    0.0000    0.0000 C   0  0  0  0  0  0  0  0  0  0  0  0
   -3.7500    1.2990    0.0000 C   0  0  0  0  0  0  0  0  0  0  0  0
   -5.2500    1.2990    0.0000 C   0  0  0  0  0  0  0  0  0  0  0  0
   -6.0000    2.5981    0.0000 C   0  0  0  0  0  0  0  0  0  0  0  0
   -7.5000    2.5981    0.0000 C   0  0  0  0  0  0  0  0  0  0  0  0
   -8.2500    1.2990    0.0000 C   0  0  0  0  0  0  0  0  0  0  0  0
   -7.5000    0.0000    0.0000 C   0  0  0  0  0  0  0  0  0  0  0  0
   -6.0000    0.0000    0.0000 C   0  0  0  0  0  0  0  0  0  0  0  0
   -3.0000    2.5981    0.0000 C   0  0  0  0  0  0  0  0  0  0  0  0
   -3.7500    3.8971    0.0000 C   0  0  0  0  0  0  0  0  0  0  0  0
   -3.0000    5.1962    0.0000 C   0  0  0  0  0  0  0  0  0  0  0  0
   -3.7500    6.4952    0.0000 C   0  0  0  0  0  0  0  0  0  0  0  0
   -5.2500    6.4952    0.0000 C   0  0  0  0  0  0  0  0  0  0  0  0
   -6.0000    7.7942    0.0000 C   0  0  0  0  0  0  0  0  0  0  0  0
   -5.2500    9.0933    0.0000 N   0  0  0  0  0  0  0  0  0  0  0  0
   -6.0000   10.3923    0.0000 C   0  0  0  0  0  0  0  0  0  0  0  0
   -5.2500   11.6913    0.0000 C   0  0  0  0  0  0  0  0  0  0  0  0
   -6.0000   12.9904    0.0000 C   0  0  0  0  0  0  0  0  0  0  0  0
   -7.4918   13.1472    0.0000 N   0  0  0  0  0  0  0  0  0  0  0  0
   -7.8037   14.6144    0.0000 N   0  0  0  0  0  0  0  0  0  0  0  0
   -6.5046   15.3644    0.0000 C   0  0  0  0  0  0  0  0  0  0  0  0
   -6.3478   16.8562    0.0000 N   0  0  0  0  0  0  0  0  0  0  0  0
   -5.3899   14.3607    0.0000 S   0  0  0  0  0  0  0  0  0  0  0  0
   -6.0000    5.1962    0.0000 C   0  0  0  0  0  0  0  0  0  0  0  0
   -5.2500    3.8971    0.0000 C   0  0  0  0  0  0  0  0  0  0  0  0
   -1.5000    2.5981    0.0000 N   0  0  0  0  0  0  0  0  0  0  0  0
   -0.7500    1.2990    0.0000 C   0  0  0  0  0  0  0  0  0  0  0  0
    0.7500    1.2990    0.0000 N   0  0  0  0  0  0  0  0  0  0  0  0
  1  2  1  0
  2  3  1  0
  3  4  2  0
  4  5  1  0
  5  6  2  0
  6  7  1  0
  7  8  2  0
  8  9  1  0
  9 10  2  0
 10 11  1  0
 11 12  2  0
 12 13  1  0
 13 14  2  0
  8 15  1  0
 15 16  1  0
 16 17  2  0
 17 18  1  0
 18 19  2  0
 19 20  1  0
 20 21  1  0
 21 22  1  0
 22 23  1  0
 23 24  1  0
 24 25  2  0
 25 26  1  0
 26 27  2  0
 27 28  1  0
 27 29  1  0
 19 30  1  0
 30 31  2  0
 15 32  2  0
 32 33  1  0
 33 34  2  0
 34  3  1  0
 33  6  1  0
 14  9  1  0
 31 16  1  0
 29 24  1  0
M  END
>  <Compound_ID>  (45) 
CHEMBL252455

>  <Active>  (45) 
1

>  <Smiles>  (45) 
CSc1ncc2cc(-c3ccccc3)c(-c3ccc(CNCCc4nnc(N)s4)cc3)nc2n1

>  <canonical_smi>  (45) 
CSc1ncc2cc(-c3ccccc3)c(-c3ccc(CNCCc4nnc(N)s4)cc3)nc2n1

>  <Set>  (45) 
G1 active

>  <Set_type>  (45) 
G1

>  <MW>  (45) 
485.64

>  <HBD>  (45) 
2

>  <HBA>  (45) 
8

>  <NRB>  (45) 
8

>  <NR>  (45) 
5

>  <NAR>  (45) 
5

>  <PSA>  (45) 
102.5

>  <Standard Type>  (45) 
nan

>  <Standard Relation>  (45) 
nan

>  <Standard Units>  (45) 
nan

>  <Standard Value>  (45) 
nan

>  <Assay ChEMBL ID>  (45) 
nan

>  <Assay Description>  (45) 
nan

>  <BAO Label>  (45) 
nan

$$$$

     RDKit          2D

 14 15  0  0  0  0  0  0  0  0999 V2000
   -4.5000   -2.5981    0.0000 N   0  0  0  0  0  0  0  0  0  0  0  0
   -3.0000   -2.5981    0.0000 S   0  0  0  0  0  0  0  0  0  0  0  0
   -3.0000   -4.0981    0.0000 O   0  0  0  0  0  0  0  0  0  0  0  0
   -3.0000   -1.0981    0.0000 O   0  0  0  0  0  0  0  0  0  0  0  0
   -1.5000   -2.5981    0.0000 C   0  0  0  0  0  0  0  0  0  0  0  0
   -0.7500   -3.8971    0.0000 C   0  0  0  0  0  0  0  0  0  0  0  0
    0.7500   -3.8971    0.0000 C   0  0  0  0  0  0  0  0  0  0  0  0
    1.5000   -2.5981    0.0000 C   0  0  0  0  0  0  0  0  0  0  0  0
    0.7500   -1.2990    0.0000 C   0  0  0  0  0  0  0  0  0  0  0  0
    1.5000    0.0000    0.0000 C   0  0  0  0  0  0  0  0  0  0  0  0
    0.7500    1.2990    0.0000 N   0  0  0  0  0  0  0  0  0  0  0  0
   -0.7500    1.2990    0.0000 C   0  0  0  0  0  0  0  0  0  0  0  0
   -1.5000    0.0000    0.0000 C   0  0  0  0  0  0  0  0  0  0  0  0
   -0.7500   -1.2990    0.0000 C   0  0  0  0  0  0  0  0  0  0  0  0
  1  2  1  0
  2  3  2  0
  2  4  2  0
  2  5  1  0
  5  6  2  0
  6  7  1  0
  7  8  2  0
  8  9  1  0
  9 10  2  0
 10 11  1  0
 11 12  2  0
 12 13  1  0
 13 14  2  0
 14  5  1  0
 14  9  1  0
M  END
>  <Compound_ID>  (46) 
CHEMBL376726

>  <Active>  (46) 
1

>  <Smiles>  (46) 
NS(=O)(=O)c1cccc2cnccc12

>  <canonical_smi>  (46) 
NS(=O)(=O)c1cccc2cnccc12

>  <Set>  (46) 
G1 active

>  <Set_type>  (46) 
G1

>  <MW>  (46) 
208.24

>  <HBD>  (46) 
1

>  <HBA>  (46) 
3

>  <NRB>  (46) 
1

>  <NR>  (46) 
2

>  <NAR>  (46) 
2

>  <PSA>  (46) 
73.05

>  <Standard Type>  (46) 
nan

>  <Standard Relation>  (46) 
nan

>  <Standard Units>  (46) 
nan

>  <Standard Value>  (46) 
nan

>  <Assay ChEMBL ID>  (46) 
nan

>  <Assay Description>  (46) 
nan

>  <BAO Label>  (46) 
nan

$$$$

     RDKit          2D

 29 33  0  0  0  0  0  0  0  0999 V2000
   -7.8175    0.9250    0.0000 N   0  0  0  0  0  0  0  0  0  0  0  0
   -6.4268    0.3631    0.0000 C   0  0  0  0  0  0  0  0  0  0  0  0
   -7.2216   -0.9090    0.0000 C   0  0  0  0  0  0  0  0  0  0  0  0
   -6.5174   -2.2334    0.0000 O   0  0  0  0  0  0  0  0  0  0  0  0
   -8.7207   -0.8566    0.0000 N   0  0  0  0  0  0  0  0  0  0  0  0
   -9.6442   -2.0386    0.0000 C   0  0  0  0  0  0  0  0  0  0  0  0
  -11.0538   -1.5256    0.0000 C   0  0  0  0  0  0  0  0  0  0  0  0
  -11.0014   -0.0265    0.0000 C   0  0  0  0  0  0  0  0  0  0  0  0
   -9.5595    0.3870    0.0000 C   0  0  0  0  0  0  0  0  0  0  0  0
   -9.0465    1.7965    0.0000 C   0  0  0  0  0  0  0  0  0  0  0  0
   -7.5693    2.0570    0.0000 C   0  0  0  0  0  0  0  0  0  0  0  0
   -7.0562    3.4665    0.0000 C   0  0  0  0  0  0  0  0  0  0  0  0
   -8.0204    4.6156    0.0000 C   0  0  0  0  0  0  0  0  0  0  0  0
   -9.4976    4.3551    0.0000 C   0  0  0  0  0  0  0  0  0  0  0  0
  -10.0107    2.9456    0.0000 C   0  0  0  0  0  0  0  0  0  0  0  0
   -5.3120   -0.6406    0.0000 C   0  0  0  0  0  0  0  0  0  0  0  0
   -3.8855   -0.1771    0.0000 C   0  0  0  0  0  0  0  0  0  0  0  0
   -3.5736    1.2902    0.0000 N   0  0  0  0  0  0  0  0  0  0  0  0
   -2.1470    1.7537    0.0000 C   0  0  0  0  0  0  0  0  0  0  0  0
   -1.8351    3.2209    0.0000 N   0  0  0  0  0  0  0  0  0  0  0  0
   -0.4086    3.6844    0.0000 C   0  0  0  0  0  0  0  0  0  0  0  0
    0.7062    2.6807    0.0000 N   0  0  0  0  0  0  0  0  0  0  0  0
    0.3943    1.2135    0.0000 C   0  0  0  0  0  0  0  0  0  0  0  0
    1.2760    0.0000    0.0000 N   0  0  0  0  0  0  0  0  0  0  0  0
    0.3943   -1.2135    0.0000 C   0  0  0  0  0  0  0  0  0  0  0  0
   -1.0323   -0.7500    0.0000 C   0  0  0  0  0  0  0  0  0  0  0  0
   -1.0323    0.7500    0.0000 C   0  0  0  0  0  0  0  0  0  0  0  0
   -4.6883    2.2939    0.0000 C   0  0  0  0  0  0  0  0  0  0  0  0
   -6.1149    1.8303    0.0000 C   0  0  0  0  0  0  0  0  0  0  0  0
  1  2  1  0
  2  3  1  0
  3  4  2  0
  3  5  1  0
  5  6  1  0
  6  7  1  0
  7  8  1  0
  8  9  1  0
  9 10  1  0
 10 11  2  0
 11 12  1  0
 12 13  2  0
 13 14  1  0
 14 15  2  0
  2 16  1  0
 16 17  1  0
 17 18  1  0
 18 19  1  0
 19 20  2  0
 20 21  1  0
 21 22  2  0
 22 23  1  0
 23 24  1  0
 24 25  1  0
 25 26  2  0
 26 27  1  0
 18 28  1  0
 28 29  1  0
 29  2  1  0
  9  5  1  0
 15 10  1  0
 27 19  1  0
 27 23  2  0
M  END
>  <Compound_ID>  (47) 
CHEMBL605326

>  <Active>  (47) 
1

>  <Smiles>  (47) 
NC1(C(=O)N2CCCC2c2ccccc2)CCN(c2ncnc3[nH]ccc23)CC1

>  <canonical_smi>  (47) 
NC1(C(=O)N2CCCC2c2ccccc2)CCN(c2ncnc3[nH]ccc23)CC1

>  <Set>  (47) 
G1 active

>  <Set_type>  (47) 
G1

>  <MW>  (47) 
390.49

>  <HBD>  (47) 
2

>  <HBA>  (47) 
5

>  <NRB>  (47) 
3

>  <NR>  (47) 
5

>  <NAR>  (47) 
3

>  <PSA>  (47) 
91.14

>  <Standard Type>  (47) 
nan

>  <Standard Relation>  (47) 
nan

>  <Standard Units>  (47) 
nan

>  <Standard Value>  (47) 
nan

>  <Assay ChEMBL ID>  (47) 
nan

>  <Assay Description>  (47) 
nan

>  <BAO Label>  (47) 
nan

$$$$

     RDKit          2D

 25 28  0  0  0  0  0  0  0  0999 V2000
   -3.7548   -2.1855    0.0000 C   0  0  0  0  0  0  0  0  0  0  0  0
   -2.6401   -3.1891    0.0000 C   0  0  0  0  0  0  0  0  0  0  0  0
   -1.2135   -2.7256    0.0000 N   0  0  0  0  0  0  0  0  0  0  0  0
   -0.0000   -3.6073    0.0000 C   0  0  0  0  0  0  0  0  0  0  0  0
   -0.0000   -5.1073    0.0000 C   0  0  0  0  0  0  0  0  0  0  0  0
    1.2135   -5.9890    0.0000 N   0  0  0  0  0  0  0  0  0  0  0  0
    0.7500   -7.4156    0.0000 O   0  0  0  0  0  0  0  0  0  0  0  0
   -0.7500   -7.4156    0.0000 N   0  0  0  0  0  0  0  0  0  0  0  0
   -1.2135   -5.9890    0.0000 C   0  0  0  0  0  0  0  0  0  0  0  0
   -2.6401   -5.5255    0.0000 N   0  0  0  0  0  0  0  0  0  0  0  0
    1.2135   -2.7256    0.0000 N   0  0  0  0  0  0  0  0  0  0  0  0
    0.7500   -1.2990    0.0000 C   0  0  0  0  0  0  0  0  0  0  0  0
    1.5000    0.0000    0.0000 C   0  0  0  0  0  0  0  0  0  0  0  0
    0.7500    1.2990    0.0000 N   0  0  0  0  0  0  0  0  0  0  0  0
   -0.7500    1.2990    0.0000 C   0  0  0  0  0  0  0  0  0  0  0  0
   -1.5000    0.0000    0.0000 C   0  0  0  0  0  0  0  0  0  0  0  0
   -3.0000    0.0000    0.0000 C   0  0  0  0  0  0  0  0  0  0  0  0
   -3.7500    1.2990    0.0000 N   0  0  0  0  0  0  0  0  0  0  0  0
   -5.2500    1.2990    0.0000 C   0  0  0  0  0  0  0  0  0  0  0  0
   -6.0000    2.5981    0.0000 C   0  0  0  0  0  0  0  0  0  0  0  0
   -7.5000    2.5981    0.0000 C   0  0  0  0  0  0  0  0  0  0  0  0
   -8.2500    1.2990    0.0000 N   0  0  0  0  0  0  0  0  0  0  0  0
   -7.5000    0.0000    0.0000 C   0  0  0  0  0  0  0  0  0  0  0  0
   -6.0000    0.0000    0.0000 C   0  0  0  0  0  0  0  0  0  0  0  0
   -0.7500   -1.2990    0.0000 C   0  0  0  0  0  0  0  0  0  0  0  0
  1  2  1  0
  2  3  1  0
  3  4  1  0
  4  5  1  0
  5  6  2  0
  6  7  1  0
  7  8  1  0
  8  9  2  0
  9 10  1  0
  4 11  2  0
 11 12  1  0
 12 13  2  0
 13 14  1  0
 14 15  2  0
 15 16  1  0
 16 17  1  0
 17 18  1  0
 18 19  1  0
 19 20  1  0
 20 21  1  0
 21 22  1  0
 22 23  1  0
 23 24  1  0
 16 25  2  0
 25  3  1  0
  9  5  1  0
 25 12  1  0
 24 19  1  0
M  END
>  <Compound_ID>  (48) 
CHEMBL188434

>  <Active>  (48) 
1

>  <Smiles>  (48) 
CCn1c(-c2nonc2N)nc2cncc(CNC3CCNCC3)c21

>  <canonical_smi>  (48) 
CCn1c(-c2nonc2N)nc2cncc(CNC3CCNCC3)c21

>  <Set>  (48) 
G1 active

>  <Set_type>  (48) 
G1

>  <MW>  (48) 
342.41

>  <HBD>  (48) 
3

>  <HBA>  (48) 
8

>  <NRB>  (48) 
5

>  <NR>  (48) 
4

>  <NAR>  (48) 
3

>  <PSA>  (48) 
119.71

>  <Standard Type>  (48) 
nan

>  <Standard Relation>  (48) 
nan

>  <Standard Units>  (48) 
nan

>  <Standard Value>  (48) 
nan

>  <Assay ChEMBL ID>  (48) 
nan

>  <Assay Description>  (48) 
nan

>  <BAO Label>  (48) 
nan

$$$$

     RDKit          2D

 16 18  0  0  0  0  0  0  0  0999 V2000
   -7.8533   -0.1004    0.0000 N   0  0  0  0  0  0  0  0  0  0  0  0
   -6.4268    0.3631    0.0000 C   0  0  0  0  0  0  0  0  0  0  0  0
   -6.1149    1.8303    0.0000 C   0  0  0  0  0  0  0  0  0  0  0  0
   -4.6883    2.2939    0.0000 C   0  0  0  0  0  0  0  0  0  0  0  0
   -3.5736    1.2902    0.0000 N   0  0  0  0  0  0  0  0  0  0  0  0
   -2.1470    1.7537    0.0000 C   0  0  0  0  0  0  0  0  0  0  0  0
   -1.8351    3.2209    0.0000 N   0  0  0  0  0  0  0  0  0  0  0  0
   -0.4086    3.6844    0.0000 C   0  0  0  0  0  0  0  0  0  0  0  0
    0.7062    2.6807    0.0000 N   0  0  0  0  0  0  0  0  0  0  0  0
    0.3943    1.2135    0.0000 C   0  0  0  0  0  0  0  0  0  0  0  0
    1.2760    0.0000    0.0000 N   0  0  0  0  0  0  0  0  0  0  0  0
    0.3943   -1.2135    0.0000 N   0  0  0  0  0  0  0  0  0  0  0  0
   -1.0323   -0.7500    0.0000 C   0  0  0  0  0  0  0  0  0  0  0  0
   -1.0323    0.7500    0.0000 C   0  0  0  0  0  0  0  0  0  0  0  0
   -3.8855   -0.1771    0.0000 C   0  0  0  0  0  0  0  0  0  0  0  0
   -5.3120   -0.6406    0.0000 C   0  0  0  0  0  0  0  0  0  0  0  0
  1  2  1  0
  2  3  1  0
  3  4  1  0
  4  5  1  0
  5  6  1  0
  6  7  2  0
  7  8  1  0
  8  9  2  0
  9 10  1  0
 10 11  1  0
 11 12  1  0
 12 13  2  0
 13 14  1  0
  5 15  1  0
 15 16  1  0
 16  2  1  0
 14  6  1  0
 14 10  2  0
M  END
>  <Compound_ID>  (49) 
CHEMBL265451

>  <Active>  (49) 
1

>  <Smiles>  (49) 
NC1CCN(c2ncnc3[nH]ncc23)CC1

>  <canonical_smi>  (49) 
NC1CCN(c2ncnc3[nH]ncc23)CC1

>  <Set>  (49) 
G1 active

>  <Set_type>  (49) 
G1

>  <MW>  (49) 
218.26

>  <HBD>  (49) 
2

>  <HBA>  (49) 
5

>  <NRB>  (49) 
1

>  <NR>  (49) 
3

>  <NAR>  (49) 
2

>  <PSA>  (49) 
83.72

>  <Standard Type>  (49) 
nan

>  <Standard Relation>  (49) 
nan

>  <Standard Units>  (49) 
nan

>  <Standard Value>  (49) 
nan

>  <Assay ChEMBL ID>  (49) 
nan

>  <Assay Description>  (49) 
nan

>  <BAO Label>  (49) 
nan

$$$$

     RDKit          2D

 16 18  0  0  0  0  0  0  0  0999 V2000
   -7.8533   -0.1004    0.0000 N   0  0  0  0  0  0  0  0  0  0  0  0
   -6.4268    0.3631    0.0000 C   0  0  0  0  0  0  0  0  0  0  0  0
   -6.1149    1.8303    0.0000 C   0  0  0  0  0  0  0  0  0  0  0  0
   -4.6883    2.2939    0.0000 C   0  0  0  0  0  0  0  0  0  0  0  0
   -3.5736    1.2902    0.0000 N   0  0  0  0  0  0  0  0  0  0  0  0
   -2.1470    1.7537    0.0000 C   0  0  0  0  0  0  0  0  0  0  0  0
   -1.8351    3.2209    0.0000 C   0  0  0  0  0  0  0  0  0  0  0  0
   -0.4086    3.6844    0.0000 C   0  0  0  0  0  0  0  0  0  0  0  0
    0.7062    2.6807    0.0000 N   0  0  0  0  0  0  0  0  0  0  0  0
    0.3943    1.2135    0.0000 C   0  0  0  0  0  0  0  0  0  0  0  0
    1.2760    0.0000    0.0000 N   0  0  0  0  0  0  0  0  0  0  0  0
    0.3943   -1.2135    0.0000 C   0  0  0  0  0  0  0  0  0  0  0  0
   -1.0323   -0.7500    0.0000 C   0  0  0  0  0  0  0  0  0  0  0  0
   -1.0323    0.7500    0.0000 C   0  0  0  0  0  0  0  0  0  0  0  0
   -3.8855   -0.1771    0.0000 C   0  0  0  0  0  0  0  0  0  0  0  0
   -5.3120   -0.6406    0.0000 C   0  0  0  0  0  0  0  0  0  0  0  0
  1  2  1  0
  2  3  1  0
  3  4  1  0
  4  5  1  0
  5  6  1  0
  6  7  2  0
  7  8  1  0
  8  9  2  0
  9 10  1  0
 10 11  1  0
 11 12  1  0
 12 13  2  0
 13 14  1  0
  5 15  1  0
 15 16  1  0
 16  2  1  0
 14  6  1  0
 14 10  2  0
M  END
>  <Compound_ID>  (50) 
CHEMBL264965

>  <Active>  (50) 
1

>  <Smiles>  (50) 
NC1CCN(c2ccnc3[nH]ccc23)CC1

>  <canonical_smi>  (50) 
NC1CCN(c2ccnc3[nH]ccc23)CC1

>  <Set>  (50) 
G1 active

>  <Set_type>  (50) 
G1

>  <MW>  (50) 
216.29

>  <HBD>  (50) 
2

>  <HBA>  (50) 
3

>  <NRB>  (50) 
1

>  <NR>  (50) 
3

>  <NAR>  (50) 
2

>  <PSA>  (50) 
57.94

>  <Standard Type>  (50) 
nan

>  <Standard Relation>  (50) 
nan

>  <Standard Units>  (50) 
nan

>  <Standard Value>  (50) 
nan

>  <Assay ChEMBL ID>  (50) 
nan

>  <Assay Description>  (50) 
nan

>  <BAO Label>  (50) 
nan

$$$$

     RDKit          2D

 34 37  0  0  0  0  0  0  0  0999 V2000
   -3.7548   -2.1855    0.0000 C   0  0  0  0  0  0  0  0  0  0  0  0
   -2.6401   -3.1891    0.0000 C   0  0  0  0  0  0  0  0  0  0  0  0
   -1.2135   -2.7256    0.0000 N   0  0  0  0  0  0  0  0  0  0  0  0
   -0.0000   -3.6073    0.0000 C   0  0  0  0  0  0  0  0  0  0  0  0
   -0.0000   -5.1073    0.0000 C   0  0  0  0  0  0  0  0  0  0  0  0
    1.2135   -5.9890    0.0000 N   0  0  0  0  0  0  0  0  0  0  0  0
    0.7500   -7.4156    0.0000 O   0  0  0  0  0  0  0  0  0  0  0  0
   -0.7500   -7.4156    0.0000 N   0  0  0  0  0  0  0  0  0  0  0  0
   -1.2135   -5.9890    0.0000 C   0  0  0  0  0  0  0  0  0  0  0  0
   -2.6401   -5.5255    0.0000 N   0  0  0  0  0  0  0  0  0  0  0  0
    1.2135   -2.7256    0.0000 N   0  0  0  0  0  0  0  0  0  0  0  0
    0.7500   -1.2990    0.0000 C   0  0  0  0  0  0  0  0  0  0  0  0
    1.5000    0.0000    0.0000 C   0  0  0  0  0  0  0  0  0  0  0  0
    3.0000    0.0000    0.0000 C   0  0  0  0  0  0  0  0  0  0  0  0
    4.5000    0.0000    0.0000 C   0  0  0  0  0  0  0  0  0  0  0  0
    6.0000    0.0000    0.0000 C   0  0  0  0  0  0  0  0  0  0  0  0
    6.0000   -1.5000    0.0000 C   0  0  0  0  0  0  0  0  0  0  0  0
    6.0000    1.5000    0.0000 C   0  0  0  0  0  0  0  0  0  0  0  0
    7.5000    0.0000    0.0000 O   0  0  0  0  0  0  0  0  0  0  0  0
    0.7500    1.2990    0.0000 N   0  0  0  0  0  0  0  0  0  0  0  0
   -0.7500    1.2990    0.0000 C   0  0  0  0  0  0  0  0  0  0  0  0
   -1.5000    2.5981    0.0000 O   0  0  0  0  0  0  0  0  0  0  0  0
   -0.7500    3.8971    0.0000 C   0  0  0  0  0  0  0  0  0  0  0  0
   -1.5000    5.1962    0.0000 C   0  0  0  0  0  0  0  0  0  0  0  0
   -0.7500    6.4952    0.0000 C   0  0  0  0  0  0  0  0  0  0  0  0
   -1.5000    7.7942    0.0000 N   0  0  0  0  0  0  0  0  0  0  0  0
    0.7500    3.8971    0.0000 C   0  0  0  0  0  0  0  0  0  0  0  0
    1.5000    2.5981    0.0000 C   0  0  0  0  0  0  0  0  0  0  0  0
    3.0000    2.5981    0.0000 C   0  0  0  0  0  0  0  0  0  0  0  0
    3.7500    3.8971    0.0000 C   0  0  0  0  0  0  0  0  0  0  0  0
    3.0000    5.1962    0.0000 C   0  0  0  0  0  0  0  0  0  0  0  0
    1.5000    5.1962    0.0000 C   0  0  0  0  0  0  0  0  0  0  0  0
   -1.5000    0.0000    0.0000 C   0  0  0  0  0  0  0  0  0  0  0  0
   -0.7500   -1.2990    0.0000 C   0  0  0  0  0  0  0  0  0  0  0  0
  1  2  1  0
  2  3  1  0
  3  4  1  0
  4  5  1  0
  5  6  2  0
  6  7  1  0
  7  8  1  0
  8  9  2  0
  9 10  1  0
  4 11  2  0
 11 12  1  0
 12 13  2  0
 13 14  1  0
 14 15  3  0
 15 16  1  0
 16 17  1  0
 16 18  1  0
 16 19  1  0
 13 20  1  0
 20 21  2  0
 21 22  1  0
 22 23  1  0
 23 24  1  1
 24 25  1  0
 25 26  1  0
 23 27  1  0
 27 28  2  0
 28 29  1  0
 29 30  2  0
 30 31  1  0
 31 32  2  0
 21 33  1  0
 33 34  2  0
 34  3  1  0
  9  5  1  0
 34 12  1  0
 32 27  1  0
M  END
>  <Compound_ID>  (51) 
CHEMBL1099297

>  <Active>  (51) 
1

>  <Smiles>  (51) 
CCn1c(-c2nonc2N)nc2c(C#CC(C)(C)O)nc(O[C@@H](CCN)c3ccccc3)cc21

>  <canonical_smi>  (51) 
CCn1c(-c2nonc2N)nc2c(C#CC(C)(C)O)nc(O[C@@H](CCN)c3ccccc3)cc21

>  <Set>  (51) 
G2 active

>  <Set_type>  (51) 
Train

>  <MW>  (51) 
461.53

>  <HBD>  (51) 
3

>  <HBA>  (51) 
9

>  <NRB>  (51) 
7

>  <NR>  (51) 
4

>  <NAR>  (51) 
4

>  <PSA>  (51) 
151.13

>  <Standard Type>  (51) 
nan

>  <Standard Relation>  (51) 
nan

>  <Standard Units>  (51) 
nan

>  <Standard Value>  (51) 
nan

>  <Assay ChEMBL ID>  (51) 
nan

>  <Assay Description>  (51) 
nan

>  <BAO Label>  (51) 
nan

$$$$

     RDKit          2D

 34 37  0  0  0  0  0  0  0  0999 V2000
   -3.7548   -2.1855    0.0000 C   0  0  0  0  0  0  0  0  0  0  0  0
   -2.6401   -3.1891    0.0000 C   0  0  0  0  0  0  0  0  0  0  0  0
   -1.2135   -2.7256    0.0000 N   0  0  0  0  0  0  0  0  0  0  0  0
   -0.0000   -3.6073    0.0000 C   0  0  0  0  0  0  0  0  0  0  0  0
   -0.0000   -5.1073    0.0000 C   0  0  0  0  0  0  0  0  0  0  0  0
    1.2135   -5.9890    0.0000 N   0  0  0  0  0  0  0  0  0  0  0  0
    0.7500   -7.4156    0.0000 O   0  0  0  0  0  0  0  0  0  0  0  0
   -0.7500   -7.4156    0.0000 N   0  0  0  0  0  0  0  0  0  0  0  0
   -1.2135   -5.9890    0.0000 C   0  0  0  0  0  0  0  0  0  0  0  0
   -2.6401   -5.5255    0.0000 N   0  0  0  0  0  0  0  0  0  0  0  0
    1.2135   -2.7256    0.0000 N   0  0  0  0  0  0  0  0  0  0  0  0
    0.7500   -1.2990    0.0000 C   0  0  0  0  0  0  0  0  0  0  0  0
    1.5000    0.0000    0.0000 C   0  0  0  0  0  0  0  0  0  0  0  0
    3.0000    0.0000    0.0000 C   0  0  0  0  0  0  0  0  0  0  0  0
    4.5000    0.0000    0.0000 C   0  0  0  0  0  0  0  0  0  0  0  0
    6.0000    0.0000    0.0000 C   0  0  0  0  0  0  0  0  0  0  0  0
    6.0000   -1.5000    0.0000 C   0  0  0  0  0  0  0  0  0  0  0  0
    6.0000    1.5000    0.0000 C   0  0  0  0  0  0  0  0  0  0  0  0
    7.5000    0.0000    0.0000 O   0  0  0  0  0  0  0  0  0  0  0  0
    0.7500    1.2990    0.0000 N   0  0  0  0  0  0  0  0  0  0  0  0
   -0.7500    1.2990    0.0000 C   0  0  0  0  0  0  0  0  0  0  0  0
   -1.5000    2.5981    0.0000 O   0  0  0  0  0  0  0  0  0  0  0  0
   -0.7500    3.8971    0.0000 C   0  0  0  0  0  0  0  0  0  0  0  0
   -1.5000    5.1962    0.0000 C   0  0  0  0  0  0  0  0  0  0  0  0
   -3.0000    5.1962    0.0000 N   0  0  0  0  0  0  0  0  0  0  0  0
   -0.7500    6.4952    0.0000 C   0  0  0  0  0  0  0  0  0  0  0  0
   -1.5000    7.7942    0.0000 C   0  0  0  0  0  0  0  0  0  0  0  0
   -0.7500    9.0933    0.0000 C   0  0  0  0  0  0  0  0  0  0  0  0
   -1.5000   10.3923    0.0000 C   0  0  0  0  0  0  0  0  0  0  0  0
   -3.0000   10.3923    0.0000 C   0  0  0  0  0  0  0  0  0  0  0  0
   -3.7500    9.0933    0.0000 C   0  0  0  0  0  0  0  0  0  0  0  0
   -3.0000    7.7942    0.0000 C   0  0  0  0  0  0  0  0  0  0  0  0
   -1.5000    0.0000    0.0000 C   0  0  0  0  0  0  0  0  0  0  0  0
   -0.7500   -1.2990    0.0000 C   0  0  0  0  0  0  0  0  0  0  0  0
  1  2  1  0
  2  3  1  0
  3  4  1  0
  4  5  1  0
  5  6  2  0
  6  7  1  0
  7  8  1  0
  8  9  2  0
  9 10  1  0
  4 11  2  0
 11 12  1  0
 12 13  2  0
 13 14  1  0
 14 15  3  0
 15 16  1  0
 16 17  1  0
 16 18  1  0
 16 19  1  0
 13 20  1  0
 20 21  2  0
 21 22  1  0
 22 23  1  0
 23 24  1  0
 24 25  1  6
 24 26  1  0
 26 27  1  0
 27 28  2  0
 28 29  1  0
 29 30  2  0
 30 31  1  0
 31 32  2  0
 21 33  1  0
 33 34  2  0
 34  3  1  0
  9  5  1  0
 34 12  1  0
 32 27  1  0
M  END
>  <Compound_ID>  (52) 
CHEMBL1098938

>  <Active>  (52) 
1

>  <Smiles>  (52) 
CCn1c(-c2nonc2N)nc2c(C#CC(C)(C)O)nc(OC[C@H](N)Cc3ccccc3)cc21

>  <canonical_smi>  (52) 
CCn1c(-c2nonc2N)nc2c(C#CC(C)(C)O)nc(OC[C@H](N)Cc3ccccc3)cc21

>  <Set>  (52) 
G2 active

>  <Set_type>  (52) 
Train

>  <MW>  (52) 
461.53

>  <HBD>  (52) 
3

>  <HBA>  (52) 
9

>  <NRB>  (52) 
7

>  <NR>  (52) 
4

>  <NAR>  (52) 
4

>  <PSA>  (52) 
151.13

>  <Standard Type>  (52) 
nan

>  <Standard Relation>  (52) 
nan

>  <Standard Units>  (52) 
nan

>  <Standard Value>  (52) 
nan

>  <Assay ChEMBL ID>  (52) 
nan

>  <Assay Description>  (52) 
nan

>  <BAO Label>  (52) 
nan

$$$$

     RDKit          2D

 25 28  0  0  0  0  0  0  0  0999 V2000
   -8.0263    2.4104    0.0000 N   0  0  0  0  0  0  0  0  0  0  0  0
   -7.8175    0.9250    0.0000 C   0  0  0  0  0  0  0  0  0  0  0  0
   -6.4268    0.3631    0.0000 C   0  0  0  0  0  0  0  0  0  0  0  0
   -7.2216   -0.9090    0.0000 C   0  0  0  0  0  0  0  0  0  0  0  0
   -8.7207   -0.8566    0.0000 C   0  0  0  0  0  0  0  0  0  0  0  0
   -9.4249    0.4678    0.0000 C   0  0  0  0  0  0  0  0  0  0  0  0
  -10.9240    0.5202    0.0000 C   0  0  0  0  0  0  0  0  0  0  0  0
  -11.7189   -0.7519    0.0000 C   0  0  0  0  0  0  0  0  0  0  0  0
  -13.2180   -0.6996    0.0000 Cl  0  0  0  0  0  0  0  0  0  0  0  0
  -11.0147   -2.0763    0.0000 C   0  0  0  0  0  0  0  0  0  0  0  0
   -9.5156   -2.1287    0.0000 C   0  0  0  0  0  0  0  0  0  0  0  0
   -5.3120   -0.6406    0.0000 C   0  0  0  0  0  0  0  0  0  0  0  0
   -3.8855   -0.1771    0.0000 C   0  0  0  0  0  0  0  0  0  0  0  0
   -3.5736    1.2902    0.0000 N   0  0  0  0  0  0  0  0  0  0  0  0
   -2.1470    1.7537    0.0000 C   0  0  0  0  0  0  0  0  0  0  0  0
   -1.8351    3.2209    0.0000 N   0  0  0  0  0  0  0  0  0  0  0  0
   -0.4086    3.6844    0.0000 C   0  0  0  0  0  0  0  0  0  0  0  0
    0.7062    2.6807    0.0000 N   0  0  0  0  0  0  0  0  0  0  0  0
    0.3943    1.2135    0.0000 C   0  0  0  0  0  0  0  0  0  0  0  0
    1.2760    0.0000    0.0000 N   0  0  0  0  0  0  0  0  0  0  0  0
    0.3943   -1.2135    0.0000 C   0  0  0  0  0  0  0  0  0  0  0  0
   -1.0323   -0.7500    0.0000 N   0  0  0  0  0  0  0  0  0  0  0  0
   -1.0323    0.7500    0.0000 C   0  0  0  0  0  0  0  0  0  0  0  0
   -4.6883    2.2939    0.0000 C   0  0  0  0  0  0  0  0  0  0  0  0
   -6.1149    1.8303    0.0000 C   0  0  0  0  0  0  0  0  0  0  0  0
  1  2  1  0
  2  3  1  0
  3  4  1  0
  4  5  1  0
  5  6  2  0
  6  7  1  0
  7  8  2  0
  8  9  1  0
  8 10  1  0
 10 11  2  0
  3 12  1  0
 12 13  1  0
 13 14  1  0
 14 15  1  0
 15 16  2  0
 16 17  1  0
 17 18  2  0
 18 19  1  0
 19 20  1  0
 20 21  1  0
 21 22  2  0
 22 23  1  0
 14 24  1  0
 24 25  1  0
 25  3  1  0
 11  5  1  0
 23 15  1  0
 23 19  2  0
M  END
>  <Compound_ID>  (53) 
CHEMBL409503

>  <Active>  (53) 
1

>  <Smiles>  (53) 
NCC1(Cc2ccc(Cl)cc2)CCN(c2ncnc3[nH]cnc23)CC1

>  <canonical_smi>  (53) 
NCC1(Cc2ccc(Cl)cc2)CCN(c2ncnc3[nH]cnc23)CC1

>  <Set>  (53) 
G2 active

>  <Set_type>  (53) 
Train

>  <MW>  (53) 
356.86

>  <HBD>  (53) 
2

>  <HBA>  (53) 
5

>  <NRB>  (53) 
4

>  <NR>  (53) 
4

>  <NAR>  (53) 
3

>  <PSA>  (53) 
83.72

>  <Standard Type>  (53) 
nan

>  <Standard Relation>  (53) 
nan

>  <Standard Units>  (53) 
nan

>  <Standard Value>  (53) 
nan

>  <Assay ChEMBL ID>  (53) 
nan

>  <Assay Description>  (53) 
nan

>  <BAO Label>  (53) 
nan

$$$$

     RDKit          2D

 33 36  0  0  0  0  0  0  0  0999 V2000
   -3.7548   -2.1855    0.0000 C   0  0  0  0  0  0  0  0  0  0  0  0
   -2.6401   -3.1891    0.0000 C   0  0  0  0  0  0  0  0  0  0  0  0
   -1.2135   -2.7256    0.0000 C   0  0  0  0  0  0  0  0  0  0  0  0
   -0.0000   -3.6073    0.0000 C   0  0  0  0  0  0  0  0  0  0  0  0
    0.0000   -5.1073    0.0000 O   0  0  0  0  0  0  0  0  0  0  0  0
    1.2135   -2.7256    0.0000 N   0  0  0  0  0  0  0  0  0  0  0  0
    0.7500   -1.2990    0.0000 C   0  0  0  0  0  0  0  0  0  0  0  0
    1.5000    0.0000    0.0000 C   0  0  0  0  0  0  0  0  0  0  0  0
    0.7500    1.2990    0.0000 C   0  0  0  0  0  0  0  0  0  0  0  0
   -0.7500    1.2990    0.0000 C   0  0  0  0  0  0  0  0  0  0  0  0
   -1.5000    2.5981    0.0000 N   0  0  0  0  0  0  0  0  0  0  0  0
   -0.7500    3.8971    0.0000 C   0  0  0  0  0  0  0  0  0  0  0  0
   -1.5000    5.1962    0.0000 N   0  0  0  0  0  0  0  0  0  0  0  0
    0.7500    3.8971    0.0000 O   0  0  0  0  0  0  0  0  0  0  0  0
   -1.5000    0.0000    0.0000 C   0  0  0  0  0  0  0  0  0  0  0  0
   -0.7500   -1.2990    0.0000 C   0  0  0  0  0  0  0  0  0  0  0  0
   -2.9520   -4.6564    0.0000 C   0  0  0  0  0  0  0  0  0  0  0  0
   -1.9483   -5.7711    0.0000 C   0  0  0  0  0  0  0  0  0  0  0  0
   -2.6983   -7.0701    0.0000 C   0  0  0  0  0  0  0  0  0  0  0  0
   -2.0882   -8.4404    0.0000 C   0  0  0  0  0  0  0  0  0  0  0  0
   -2.9699   -9.6540    0.0000 N   0  0  0  0  0  0  0  0  0  0  0  0
   -2.3597  -11.0243    0.0000 C   0  0  0  0  0  0  0  0  0  0  0  0
   -0.8680  -11.1811    0.0000 O   0  0  0  0  0  0  0  0  0  0  0  0
   -3.2414  -12.2378    0.0000 C   0  0  0  0  0  0  0  0  0  0  0  0
   -2.6313  -13.6081    0.0000 C   0  0  0  0  0  0  0  0  0  0  0  0
   -3.5130  -14.8217    0.0000 N   0  0  0  0  0  0  0  0  0  0  0  0
   -5.0048  -14.6649    0.0000 C   0  0  0  0  0  0  0  0  0  0  0  0
   -5.8865  -15.8784    0.0000 C   0  0  0  0  0  0  0  0  0  0  0  0
   -5.2764  -17.2487    0.0000 C   0  0  0  0  0  0  0  0  0  0  0  0
   -3.7846  -17.4055    0.0000 C   0  0  0  0  0  0  0  0  0  0  0  0
   -2.9029  -16.1920    0.0000 C   0  0  0  0  0  0  0  0  0  0  0  0
   -4.1655   -6.7583    0.0000 C   0  0  0  0  0  0  0  0  0  0  0  0
   -4.3223   -5.2665    0.0000 N   0  0  0  0  0  0  0  0  0  0  0  0
  1  2  1  0
  2  3  2  0
  3  4  1  0
  4  5  2  0
  4  6  1  0
  6  7  1  0
  7  8  2  0
  8  9  1  0
  9 10  2  0
 10 11  1  0
 11 12  1  0
 12 13  1  0
 12 14  2  0
 10 15  1  0
 15 16  2  0
  2 17  1  0
 17 18  2  0
 18 19  1  0
 19 20  1  0
 20 21  1  0
 21 22  1  0
 22 23  2  0
 22 24  1  0
 24 25  1  0
 25 26  1  0
 26 27  1  0
 27 28  1  0
 28 29  1  0
 29 30  1  0
 30 31  1  0
 19 32  2  0
 32 33  1  0
 16  3  1  0
 33 17  1  0
 16  7  1  0
 31 26  1  0
M  END
>  <Compound_ID>  (54) 
CHEMBL228867

>  <Active>  (54) 
1

>  <Smiles>  (54) 
C/C(=C1/C(=O)Nc2ccc(NC(N)=O)cc21)c1cc(CNC(=O)CCN2CCCCC2)c[nH]1

>  <canonical_smi>  (54) 
C/C(=C1/C(=O)Nc2ccc(NC(N)=O)cc21)c1cc(CNC(=O)CCN2CCCCC2)c[nH]1

>  <Set>  (54) 
G2 active

>  <Set_type>  (54) 
Train

>  <MW>  (54) 
450.54

>  <HBD>  (54) 
5

>  <HBA>  (54) 
4

>  <NRB>  (54) 
7

>  <NR>  (54) 
4

>  <NAR>  (54) 
2

>  <PSA>  (54) 
132.35

>  <Standard Type>  (54) 
nan

>  <Standard Relation>  (54) 
nan

>  <Standard Units>  (54) 
nan

>  <Standard Value>  (54) 
nan

>  <Assay ChEMBL ID>  (54) 
nan

>  <Assay Description>  (54) 
nan

>  <BAO Label>  (54) 
nan

$$$$

     RDKit          2D

 28 31  0  0  0  0  0  0  0  0999 V2000
    2.1156  -11.4947    0.0000 N   0  0  0  0  0  0  0  0  0  0  0  0
    1.5055  -10.1243    0.0000 C   0  0  0  0  0  0  0  0  0  0  0  0
    0.0137   -9.9676    0.0000 C   0  0  0  0  0  0  0  0  0  0  0  0
   -0.8680  -11.1811    0.0000 C   0  0  0  0  0  0  0  0  0  0  0  0
   -2.3597  -11.0243    0.0000 C   0  0  0  0  0  0  0  0  0  0  0  0
   -2.9699   -9.6540    0.0000 C   0  0  0  0  0  0  0  0  0  0  0  0
   -2.0882   -8.4404    0.0000 C   0  0  0  0  0  0  0  0  0  0  0  0
   -2.6983   -7.0701    0.0000 C   0  0  0  0  0  0  0  0  0  0  0  0
   -4.1655   -6.7583    0.0000 C   0  0  0  0  0  0  0  0  0  0  0  0
   -4.3223   -5.2665    0.0000 N   0  0  0  0  0  0  0  0  0  0  0  0
   -2.9520   -4.6564    0.0000 C   0  0  0  0  0  0  0  0  0  0  0  0
   -2.6401   -3.1891    0.0000 C   0  0  0  0  0  0  0  0  0  0  0  0
   -1.2135   -2.7256    0.0000 C   0  0  0  0  0  0  0  0  0  0  0  0
   -0.0000   -3.6073    0.0000 C   0  0  0  0  0  0  0  0  0  0  0  0
    0.0000   -5.1073    0.0000 O   0  0  0  0  0  0  0  0  0  0  0  0
    1.2135   -2.7256    0.0000 N   0  0  0  0  0  0  0  0  0  0  0  0
    0.7500   -1.2990    0.0000 C   0  0  0  0  0  0  0  0  0  0  0  0
    1.5000    0.0000    0.0000 C   0  0  0  0  0  0  0  0  0  0  0  0
    0.7500    1.2990    0.0000 C   0  0  0  0  0  0  0  0  0  0  0  0
   -0.7500    1.2990    0.0000 C   0  0  0  0  0  0  0  0  0  0  0  0
   -1.5000    2.5981    0.0000 N   0  0  0  0  0  0  0  0  0  0  0  0
   -0.7500    3.8971    0.0000 C   0  0  0  0  0  0  0  0  0  0  0  0
   -1.5000    5.1962    0.0000 N   0  0  0  0  0  0  0  0  0  0  0  0
    0.7500    3.8971    0.0000 O   0  0  0  0  0  0  0  0  0  0  0  0
   -1.5000    0.0000    0.0000 C   0  0  0  0  0  0  0  0  0  0  0  0
   -0.7500   -1.2990    0.0000 C   0  0  0  0  0  0  0  0  0  0  0  0
   -1.9483   -5.7711    0.0000 C   0  0  0  0  0  0  0  0  0  0  0  0
   -0.5964   -8.5972    0.0000 C   0  0  0  0  0  0  0  0  0  0  0  0
  1  2  1  0
  2  3  1  0
  3  4  2  0
  4  5  1  0
  5  6  2  0
  6  7  1  0
  7  8  1  0
  8  9  2  0
  9 10  1  0
 10 11  1  0
 11 12  1  0
 12 13  2  0
 13 14  1  0
 14 15  2  0
 14 16  1  0
 16 17  1  0
 17 18  2  0
 18 19  1  0
 19 20  2  0
 20 21  1  0
 21 22  1  0
 22 23  1  0
 22 24  2  0
 20 25  1  0
 25 26  2  0
 11 27  2  0
  7 28  2  0
 28  3  1  0
 27  8  1  0
 26 13  1  0
 26 17  1  0
M  END
>  <Compound_ID>  (55) 
CHEMBL228652

>  <Active>  (55) 
1

>  <Smiles>  (55) 
NCc1cccc(-c2c[nH]c(/C=C3\C(=O)Nc4ccc(NC(N)=O)cc43)c2)c1

>  <canonical_smi>  (55) 
NCc1cccc(-c2c[nH]c(/C=C3\C(=O)Nc4ccc(NC(N)=O)cc43)c2)c1

>  <Set>  (55) 
G2 active

>  <Set_type>  (55) 
Train

>  <MW>  (55) 
373.42

>  <HBD>  (55) 
5

>  <HBA>  (55) 
3

>  <NRB>  (55) 
4

>  <NR>  (55) 
4

>  <NAR>  (55) 
3

>  <PSA>  (55) 
126.03

>  <Standard Type>  (55) 
nan

>  <Standard Relation>  (55) 
nan

>  <Standard Units>  (55) 
nan

>  <Standard Value>  (55) 
nan

>  <Assay ChEMBL ID>  (55) 
nan

>  <Assay Description>  (55) 
nan

>  <BAO Label>  (55) 
nan

$$$$

     RDKit          2D

 32 35  0  0  0  0  0  0  0  0999 V2000
   -3.7548   -2.1855    0.0000 C   0  0  0  0  0  0  0  0  0  0  0  0
   -2.6401   -3.1891    0.0000 C   0  0  0  0  0  0  0  0  0  0  0  0
   -1.2135   -2.7256    0.0000 C   0  0  0  0  0  0  0  0  0  0  0  0
   -0.0000   -3.6073    0.0000 C   0  0  0  0  0  0  0  0  0  0  0  0
    0.0000   -5.1073    0.0000 O   0  0  0  0  0  0  0  0  0  0  0  0
    1.2135   -2.7256    0.0000 N   0  0  0  0  0  0  0  0  0  0  0  0
    0.7500   -1.2990    0.0000 C   0  0  0  0  0  0  0  0  0  0  0  0
    1.5000    0.0000    0.0000 C   0  0  0  0  0  0  0  0  0  0  0  0
    0.7500    1.2990    0.0000 C   0  0  0  0  0  0  0  0  0  0  0  0
   -0.7500    1.2990    0.0000 C   0  0  0  0  0  0  0  0  0  0  0  0
   -1.5000    2.5981    0.0000 N   0  0  0  0  0  0  0  0  0  0  0  0
   -0.7500    3.8971    0.0000 C   0  0  0  0  0  0  0  0  0  0  0  0
   -1.5000    5.1962    0.0000 N   0  0  0  0  0  0  0  0  0  0  0  0
    0.7500    3.8971    0.0000 O   0  0  0  0  0  0  0  0  0  0  0  0
   -1.5000    0.0000    0.0000 C   0  0  0  0  0  0  0  0  0  0  0  0
   -0.7500   -1.2990    0.0000 C   0  0  0  0  0  0  0  0  0  0  0  0
   -2.9520   -4.6564    0.0000 C   0  0  0  0  0  0  0  0  0  0  0  0
   -1.9483   -5.7711    0.0000 C   0  0  0  0  0  0  0  0  0  0  0  0
   -2.6983   -7.0701    0.0000 C   0  0  0  0  0  0  0  0  0  0  0  0
   -2.0882   -8.4404    0.0000 C   0  0  0  0  0  0  0  0  0  0  0  0
   -2.9699   -9.6540    0.0000 N   0  0  0  0  0  0  0  0  0  0  0  0
   -2.3597  -11.0243    0.0000 C   0  0  0  0  0  0  0  0  0  0  0  0
   -0.8680  -11.1811    0.0000 O   0  0  0  0  0  0  0  0  0  0  0  0
   -3.2414  -12.2378    0.0000 C   0  0  0  0  0  0  0  0  0  0  0  0
   -4.7332  -12.0810    0.0000 C   0  0  0  0  0  0  0  0  0  0  0  0
   -5.6149  -13.2945    0.0000 C   0  0  0  0  0  0  0  0  0  0  0  0
   -5.0048  -14.6649    0.0000 N   0  0  0  0  0  0  0  0  0  0  0  0
   -5.8865  -15.8784    0.0000 C   0  0  0  0  0  0  0  0  0  0  0  0
   -3.5130  -14.8217    0.0000 C   0  0  0  0  0  0  0  0  0  0  0  0
   -2.6313  -13.6081    0.0000 C   0  0  0  0  0  0  0  0  0  0  0  0
   -4.1655   -6.7583    0.0000 C   0  0  0  0  0  0  0  0  0  0  0  0
   -4.3223   -5.2665    0.0000 N   0  0  0  0  0  0  0  0  0  0  0  0
  1  2  1  0
  2  3  2  0
  3  4  1  0
  4  5  2  0
  4  6  1  0
  6  7  1  0
  7  8  2  0
  8  9  1  0
  9 10  2  0
 10 11  1  0
 11 12  1  0
 12 13  1  0
 12 14  2  0
 10 15  1  0
 15 16  2  0
  2 17  1  0
 17 18  2  0
 18 19  1  0
 19 20  1  0
 20 21  1  0
 21 22  1  0
 22 23  2  0
 22 24  1  0
 24 25  1  0
 25 26  1  0
 26 27  1  0
 27 28  1  0
 27 29  1  0
 29 30  1  0
 19 31  2  0
 31 32  1  0
 16  3  1  0
 32 17  1  0
 16  7  1  0
 30 24  1  0
M  END
>  <Compound_ID>  (56) 
CHEMBL228810

>  <Active>  (56) 
1

>  <Smiles>  (56) 
C/C(=C1/C(=O)Nc2ccc(NC(N)=O)cc21)c1cc(CNC(=O)C2CCN(C)CC2)c[nH]1

>  <canonical_smi>  (56) 
C/C(=C1/C(=O)Nc2ccc(NC(N)=O)cc21)c1cc(CNC(=O)C2CCN(C)CC2)c[nH]1

>  <Set>  (56) 
G2 active

>  <Set_type>  (56) 
Train

>  <MW>  (56) 
436.52

>  <HBD>  (56) 
5

>  <HBA>  (56) 
4

>  <NRB>  (56) 
5

>  <NR>  (56) 
4

>  <NAR>  (56) 
2

>  <PSA>  (56) 
132.35

>  <Standard Type>  (56) 
nan

>  <Standard Relation>  (56) 
nan

>  <Standard Units>  (56) 
nan

>  <Standard Value>  (56) 
nan

>  <Assay ChEMBL ID>  (56) 
nan

>  <Assay Description>  (56) 
nan

>  <BAO Label>  (56) 
nan

$$$$

     RDKit          2D

 37 41  0  0  0  0  0  0  0  0999 V2000
    5.2500   -1.2990    0.0000 N   0  0  0  0  0  0  0  0  0  0  0  0
    3.7500   -1.2990    0.0000 C   0  0  0  0  0  0  0  0  0  0  0  0
    3.0000   -2.5981    0.0000 O   0  0  0  0  0  0  0  0  0  0  0  0
    3.0000    0.0000    0.0000 N   0  0  0  0  0  0  0  0  0  0  0  0
    1.5000    0.0000    0.0000 C   0  0  0  0  0  0  0  0  0  0  0  0
    0.7500   -1.2990    0.0000 C   0  0  0  0  0  0  0  0  0  0  0  0
   -0.7500   -1.2990    0.0000 C   0  0  0  0  0  0  0  0  0  0  0  0
   -1.5000    0.0000    0.0000 C   0  0  0  0  0  0  0  0  0  0  0  0
   -0.7500    1.2990    0.0000 C   0  0  0  0  0  0  0  0  0  0  0  0
    0.7500    1.2990    0.0000 C   0  0  0  0  0  0  0  0  0  0  0  0
   -1.7537    2.4138    0.0000 C   0  0  0  0  0  0  0  0  0  0  0  0
   -1.4418    3.8810    0.0000 C   0  0  0  0  0  0  0  0  0  0  0  0
   -2.5565    4.8847    0.0000 C   0  0  0  0  0  0  0  0  0  0  0  0
   -4.0238    4.5728    0.0000 C   0  0  0  0  0  0  0  0  0  0  0  0
   -4.7738    5.8718    0.0000 C   0  0  0  0  0  0  0  0  0  0  0  0
   -6.2655    6.0286    0.0000 C   0  0  0  0  0  0  0  0  0  0  0  0
   -6.8757    7.3990    0.0000 C   0  0  0  0  0  0  0  0  0  0  0  0
   -8.3674    7.5557    0.0000 C   0  0  0  0  0  0  0  0  0  0  0  0
   -9.2491    6.3422    0.0000 C   0  0  0  0  0  0  0  0  0  0  0  0
   -8.6390    4.9719    0.0000 C   0  0  0  0  0  0  0  0  0  0  0  0
   -9.5207    3.7584    0.0000 C   0  0  0  0  0  0  0  0  0  0  0  0
   -8.9106    2.3881    0.0000 O   0  0  0  0  0  0  0  0  0  0  0  0
  -11.0125    3.9152    0.0000 N   0  0  0  0  0  0  0  0  0  0  0  0
  -11.8941    2.7016    0.0000 C   0  0  0  0  0  0  0  0  0  0  0  0
  -13.3859    2.8584    0.0000 C   0  0  0  0  0  0  0  0  0  0  0  0
  -14.2676    1.6449    0.0000 N   0  0  0  0  0  0  0  0  0  0  0  0
  -15.7594    1.8017    0.0000 C   0  0  0  0  0  0  0  0  0  0  0  0
  -16.6411    0.5882    0.0000 C   0  0  0  0  0  0  0  0  0  0  0  0
  -16.0310   -0.7821    0.0000 C   0  0  0  0  0  0  0  0  0  0  0  0
  -14.5392   -0.9389    0.0000 C   0  0  0  0  0  0  0  0  0  0  0  0
  -13.6575    0.2746    0.0000 C   0  0  0  0  0  0  0  0  0  0  0  0
   -7.1472    4.8151    0.0000 C   0  0  0  0  0  0  0  0  0  0  0  0
   -3.7701    6.9866    0.0000 C   0  0  0  0  0  0  0  0  0  0  0  0
   -2.3998    6.3765    0.0000 N   0  0  0  0  0  0  0  0  0  0  0  0
   -3.1240    1.8037    0.0000 C   0  0  0  0  0  0  0  0  0  0  0  0
   -4.4231    2.5537    0.0000 O   0  0  0  0  0  0  0  0  0  0  0  0
   -2.9672    0.3119    0.0000 N   0  0  0  0  0  0  0  0  0  0  0  0
  1  2  1  0
  2  3  2  0
  2  4  1  0
  4  5  1  0
  5  6  2  0
  6  7  1  0
  7  8  2  0
  8  9  1  0
  9 10  2  0
  9 11  1  0
 11 12  2  0
 12 13  1  0
 13 14  2  0
 14 15  1  0
 15 16  1  0
 16 17  2  0
 17 18  1  0
 18 19  2  0
 19 20  1  0
 20 21  1  0
 21 22  2  0
 21 23  1  0
 23 24  1  0
 24 25  1  0
 25 26  1  0
 26 27  1  0
 27 28  1  0
 28 29  1  0
 29 30  1  0
 30 31  1  0
 20 32  2  0
 15 33  2  0
 33 34  1  0
 11 35  1  0
 35 36  2  0
 35 37  1  0
 10  5  1  0
 34 13  1  0
 37  8  1  0
 32 16  1  0
 31 26  1  0
M  END
>  <Compound_ID>  (57) 
CHEMBL425650

>  <Active>  (57) 
1

>  <Smiles>  (57) 
NC(=O)Nc1ccc2c(c1)/C(=C/c1cc(-c3cccc(C(=O)NCCN4CCCCC4)c3)c[nH]1)C(=O)N2

>  <canonical_smi>  (57) 
NC(=O)Nc1ccc2c(c1)/C(=C/c1cc(-c3cccc(C(=O)NCCN4CCCCC4)c3)c[nH]1)C(=O)N2

>  <Set>  (57) 
G2 active

>  <Set_type>  (57) 
Train

>  <MW>  (57) 
498.59

>  <HBD>  (57) 
5

>  <HBA>  (57) 
4

>  <NRB>  (57) 
7

>  <NR>  (57) 
5

>  <NAR>  (57) 
3

>  <PSA>  (57) 
132.35

>  <Standard Type>  (57) 
nan

>  <Standard Relation>  (57) 
nan

>  <Standard Units>  (57) 
nan

>  <Standard Value>  (57) 
nan

>  <Assay ChEMBL ID>  (57) 
nan

>  <Assay Description>  (57) 
nan

>  <BAO Label>  (57) 
nan

$$$$

     RDKit          2D

 35 38  0  0  0  0  0  0  0  0999 V2000
   -3.7548   -2.1855    0.0000 C   0  0  0  0  0  0  0  0  0  0  0  0
   -2.6401   -3.1891    0.0000 C   0  0  0  0  0  0  0  0  0  0  0  0
   -1.2135   -2.7256    0.0000 N   0  0  0  0  0  0  0  0  0  0  0  0
   -0.0000   -3.6073    0.0000 C   0  0  0  0  0  0  0  0  0  0  0  0
   -0.0000   -5.1073    0.0000 C   0  0  0  0  0  0  0  0  0  0  0  0
    1.2135   -5.9890    0.0000 N   0  0  0  0  0  0  0  0  0  0  0  0
    0.7500   -7.4156    0.0000 O   0  0  0  0  0  0  0  0  0  0  0  0
   -0.7500   -7.4156    0.0000 N   0  0  0  0  0  0  0  0  0  0  0  0
   -1.2135   -5.9890    0.0000 C   0  0  0  0  0  0  0  0  0  0  0  0
   -2.6401   -5.5255    0.0000 N   0  0  0  0  0  0  0  0  0  0  0  0
    1.2135   -2.7256    0.0000 N   0  0  0  0  0  0  0  0  0  0  0  0
    0.7500   -1.2990    0.0000 C   0  0  0  0  0  0  0  0  0  0  0  0
    1.5000    0.0000    0.0000 C   0  0  0  0  0  0  0  0  0  0  0  0
    3.0000    0.0000    0.0000 C   0  0  0  0  0  0  0  0  0  0  0  0
    4.5000    0.0000    0.0000 C   0  0  0  0  0  0  0  0  0  0  0  0
    6.0000    0.0000    0.0000 C   0  0  0  0  0  0  0  0  0  0  0  0
    6.0000   -1.5000    0.0000 C   0  0  0  0  0  0  0  0  0  0  0  0
    6.0000    1.5000    0.0000 C   0  0  0  0  0  0  0  0  0  0  0  0
    7.5000    0.0000    0.0000 O   0  0  0  0  0  0  0  0  0  0  0  0
    0.7500    1.2990    0.0000 N   0  0  0  0  0  0  0  0  0  0  0  0
   -0.7500    1.2990    0.0000 C   0  0  0  0  0  0  0  0  0  0  0  0
   -1.5000    0.0000    0.0000 C   0  0  0  0  0  0  0  0  0  0  0  0
   -3.0000    0.0000    0.0000 O   0  0  0  0  0  0  0  0  0  0  0  0
   -3.7500    1.2990    0.0000 C   0  0  0  0  0  0  0  0  0  0  0  0
   -5.2500    1.2990    0.0000 C   0  0  0  0  0  0  0  0  0  0  0  0
   -6.0000    2.5981    0.0000 C   0  0  0  0  0  0  0  0  0  0  0  0
   -5.2500    3.8971    0.0000 N   0  0  0  0  0  0  0  0  0  0  0  0
   -7.5000    2.5981    0.0000 C   0  0  0  0  0  0  0  0  0  0  0  0
   -8.2500    3.8971    0.0000 C   0  0  0  0  0  0  0  0  0  0  0  0
   -7.5000    5.1962    0.0000 C   0  0  0  0  0  0  0  0  0  0  0  0
   -8.2500    6.4952    0.0000 C   0  0  0  0  0  0  0  0  0  0  0  0
   -9.7500    6.4952    0.0000 C   0  0  0  0  0  0  0  0  0  0  0  0
  -10.5000    5.1962    0.0000 C   0  0  0  0  0  0  0  0  0  0  0  0
   -9.7500    3.8971    0.0000 C   0  0  0  0  0  0  0  0  0  0  0  0
   -0.7500   -1.2990    0.0000 C   0  0  0  0  0  0  0  0  0  0  0  0
  1  2  1  0
  2  3  1  0
  3  4  1  0
  4  5  1  0
  5  6  2  0
  6  7  1  0
  7  8  1  0
  8  9  2  0
  9 10  1  0
  4 11  2  0
 11 12  1  0
 12 13  2  0
 13 14  1  0
 14 15  3  0
 15 16  1  0
 16 17  1  0
 16 18  1  0
 16 19  1  0
 13 20  1  0
 20 21  2  0
 21 22  1  0
 22 23  1  0
 23 24  1  0
 24 25  1  0
 25 26  1  0
 26 27  1  6
 26 28  1  0
 28 29  1  0
 29 30  2  0
 30 31  1  0
 31 32  2  0
 32 33  1  0
 33 34  2  0
 22 35  2  0
 35  3  1  0
  9  5  1  0
 35 12  1  0
 34 29  1  0
M  END
>  <Compound_ID>  (58) 
CHEMBL523859

>  <Active>  (58) 
1

>  <Smiles>  (58) 
CCn1c(-c2nonc2N)nc2c(C#CC(C)(C)O)ncc(OCC[C@@H](N)Cc3ccccc3)c21

>  <canonical_smi>  (58) 
CCn1c(-c2nonc2N)nc2c(C#CC(C)(C)O)ncc(OCC[C@@H](N)Cc3ccccc3)c21

>  <Set>  (58) 
G2 active

>  <Set_type>  (58) 
Train

>  <MW>  (58) 
475.55

>  <HBD>  (58) 
3

>  <HBA>  (58) 
9

>  <NRB>  (58) 
8

>  <NR>  (58) 
4

>  <NAR>  (58) 
4

>  <PSA>  (58) 
151.13

>  <Standard Type>  (58) 
nan

>  <Standard Relation>  (58) 
nan

>  <Standard Units>  (58) 
nan

>  <Standard Value>  (58) 
nan

>  <Assay ChEMBL ID>  (58) 
nan

>  <Assay Description>  (58) 
nan

>  <BAO Label>  (58) 
nan

$$$$

     RDKit          2D

 25 28  0  0  0  0  0  0  0  0999 V2000
   -8.0263    2.4104    0.0000 N   0  0  0  0  0  0  0  0  0  0  0  0
   -7.8175    0.9250    0.0000 C   0  0  0  0  0  0  0  0  0  0  0  0
   -6.4268    0.3631    0.0000 C   0  0  0  0  0  0  0  0  0  0  0  0
   -7.2216   -0.9090    0.0000 C   0  0  0  0  0  0  0  0  0  0  0  0
   -8.7207   -0.8566    0.0000 C   0  0  0  0  0  0  0  0  0  0  0  0
   -9.4249    0.4678    0.0000 C   0  0  0  0  0  0  0  0  0  0  0  0
  -10.9240    0.5202    0.0000 C   0  0  0  0  0  0  0  0  0  0  0  0
  -11.7189   -0.7519    0.0000 C   0  0  0  0  0  0  0  0  0  0  0  0
  -13.2180   -0.6996    0.0000 Cl  0  0  0  0  0  0  0  0  0  0  0  0
  -11.0147   -2.0763    0.0000 C   0  0  0  0  0  0  0  0  0  0  0  0
   -9.5156   -2.1287    0.0000 C   0  0  0  0  0  0  0  0  0  0  0  0
   -5.3120   -0.6406    0.0000 C   0  0  0  0  0  0  0  0  0  0  0  0
   -3.8855   -0.1771    0.0000 C   0  0  0  0  0  0  0  0  0  0  0  0
   -3.5736    1.2902    0.0000 N   0  0  0  0  0  0  0  0  0  0  0  0
   -2.1470    1.7537    0.0000 C   0  0  0  0  0  0  0  0  0  0  0  0
   -1.8351    3.2209    0.0000 N   0  0  0  0  0  0  0  0  0  0  0  0
   -0.4086    3.6844    0.0000 C   0  0  0  0  0  0  0  0  0  0  0  0
    0.7062    2.6807    0.0000 N   0  0  0  0  0  0  0  0  0  0  0  0
    0.3943    1.2135    0.0000 C   0  0  0  0  0  0  0  0  0  0  0  0
    1.2760    0.0000    0.0000 N   0  0  0  0  0  0  0  0  0  0  0  0
    0.3943   -1.2135    0.0000 C   0  0  0  0  0  0  0  0  0  0  0  0
   -1.0323   -0.7500    0.0000 C   0  0  0  0  0  0  0  0  0  0  0  0
   -1.0323    0.7500    0.0000 C   0  0  0  0  0  0  0  0  0  0  0  0
   -4.6883    2.2939    0.0000 C   0  0  0  0  0  0  0  0  0  0  0  0
   -6.1149    1.8303    0.0000 C   0  0  0  0  0  0  0  0  0  0  0  0
  1  2  1  0
  2  3  1  0
  3  4  1  0
  4  5  1  0
  5  6  2  0
  6  7  1  0
  7  8  2  0
  8  9  1  0
  8 10  1  0
 10 11  2  0
  3 12  1  0
 12 13  1  0
 13 14  1  0
 14 15  1  0
 15 16  2  0
 16 17  1  0
 17 18  2  0
 18 19  1  0
 19 20  1  0
 20 21  1  0
 21 22  2  0
 22 23  1  0
 14 24  1  0
 24 25  1  0
 25  3  1  0
 11  5  1  0
 23 15  1  0
 23 19  2  0
M  END
>  <Compound_ID>  (59) 
CHEMBL260000

>  <Active>  (59) 
1

>  <Smiles>  (59) 
NCC1(Cc2ccc(Cl)cc2)CCN(c2ncnc3[nH]ccc23)CC1

>  <canonical_smi>  (59) 
NCC1(Cc2ccc(Cl)cc2)CCN(c2ncnc3[nH]ccc23)CC1

>  <Set>  (59) 
G2 active

>  <Set_type>  (59) 
Train

>  <MW>  (59) 
355.87

>  <HBD>  (59) 
2

>  <HBA>  (59) 
4

>  <NRB>  (59) 
4

>  <NR>  (59) 
4

>  <NAR>  (59) 
3

>  <PSA>  (59) 
70.83

>  <Standard Type>  (59) 
nan

>  <Standard Relation>  (59) 
nan

>  <Standard Units>  (59) 
nan

>  <Standard Value>  (59) 
nan

>  <Assay ChEMBL ID>  (59) 
nan

>  <Assay Description>  (59) 
nan

>  <BAO Label>  (59) 
nan

$$$$

     RDKit          2D

 28 31  0  0  0  0  0  0  0  0999 V2000
    2.7395   -6.6734    0.0000 N   0  0  0  0  0  0  0  0  0  0  0  0
    3.0000   -5.1962    0.0000 C   0  0  0  0  0  0  0  0  0  0  0  0
    4.4095   -5.7092    0.0000 C   0  0  0  0  0  0  0  0  0  0  0  0
    5.5586   -4.7450    0.0000 O   0  0  0  0  0  0  0  0  0  0  0  0
    4.6700   -7.1864    0.0000 N   0  0  0  0  0  0  0  0  0  0  0  0
    6.0796   -7.6994    0.0000 C   0  0  0  0  0  0  0  0  0  0  0  0
    6.3400   -9.1766    0.0000 C   0  0  0  0  0  0  0  0  0  0  0  0
    5.1910  -10.1408    0.0000 C   0  0  0  0  0  0  0  0  0  0  0  0
    5.4514  -11.6180    0.0000 C   0  0  0  0  0  0  0  0  0  0  0  0
    6.8610  -12.1311    0.0000 C   0  0  0  0  0  0  0  0  0  0  0  0
    7.1214  -13.6083    0.0000 Cl  0  0  0  0  0  0  0  0  0  0  0  0
    8.0100  -11.1669    0.0000 C   0  0  0  0  0  0  0  0  0  0  0  0
    7.7496   -9.6897    0.0000 C   0  0  0  0  0  0  0  0  0  0  0  0
    3.7500   -3.8971    0.0000 C   0  0  0  0  0  0  0  0  0  0  0  0
    3.0000   -2.5981    0.0000 C   0  0  0  0  0  0  0  0  0  0  0  0
    1.5000   -2.5981    0.0000 N   0  0  0  0  0  0  0  0  0  0  0  0
    0.7500   -1.2990    0.0000 C   0  0  0  0  0  0  0  0  0  0  0  0
    1.5000    0.0000    0.0000 N   0  0  0  0  0  0  0  0  0  0  0  0
    0.7500    1.2990    0.0000 C   0  0  0  0  0  0  0  0  0  0  0  0
   -0.7500    1.2990    0.0000 N   0  0  0  0  0  0  0  0  0  0  0  0
   -1.5000    0.0000    0.0000 C   0  0  0  0  0  0  0  0  0  0  0  0
   -2.9672   -0.3119    0.0000 N   0  0  0  0  0  0  0  0  0  0  0  0
   -3.1240   -1.8037    0.0000 C   0  0  0  0  0  0  0  0  0  0  0  0
   -4.4231   -2.5537    0.0000 O   0  0  0  0  0  0  0  0  0  0  0  0
   -1.7537   -2.4138    0.0000 N   0  0  0  0  0  0  0  0  0  0  0  0
   -0.7500   -1.2990    0.0000 C   0  0  0  0  0  0  0  0  0  0  0  0
    0.7500   -3.8971    0.0000 C   0  0  0  0  0  0  0  0  0  0  0  0
    1.5000   -5.1962    0.0000 C   0  0  0  0  0  0  0  0  0  0  0  0
  1  2  1  0
  2  3  1  0
  3  4  2  0
  3  5  1  0
  5  6  1  0
  6  7  1  0
  7  8  2  0
  8  9  1  0
  9 10  2  0
 10 11  1  0
 10 12  1  0
 12 13  2  0
  2 14  1  0
 14 15  1  0
 15 16  1  0
 16 17  1  0
 17 18  2  0
 18 19  1  0
 19 20  2  0
 20 21  1  0
 21 22  1  0
 22 23  1  0
 23 24  2  0
 23 25  1  0
 25 26  1  0
 16 27  1  0
 27 28  1  0
 28  2  1  0
 13  7  1  0
 26 17  1  0
 26 21  2  0
M  END
>  <Compound_ID>  (60) 
CHEMBL598842

>  <Active>  (60) 
1

>  <Smiles>  (60) 
NC1(C(=O)NCc2ccc(Cl)cc2)CCN(c2ncnc3[nH]c(=O)[nH]c23)CC1

>  <canonical_smi>  (60) 
NC1(C(=O)NCc2ccc(Cl)cc2)CCN(c2ncnc3[nH]c(=O)[nH]c23)CC1

>  <Set>  (60) 
G2 active

>  <Set_type>  (60) 
Train

>  <MW>  (60) 
401.86

>  <HBD>  (60) 
4

>  <HBA>  (60) 
6

>  <NRB>  (60) 
4

>  <NR>  (60) 
4

>  <NAR>  (60) 
3

>  <PSA>  (60) 
132.79

>  <Standard Type>  (60) 
nan

>  <Standard Relation>  (60) 
nan

>  <Standard Units>  (60) 
nan

>  <Standard Value>  (60) 
nan

>  <Assay ChEMBL ID>  (60) 
nan

>  <Assay Description>  (60) 
nan

>  <BAO Label>  (60) 
nan

$$$$

     RDKit          2D

 27 29  0  0  0  0  0  0  0  0999 V2000
   -3.7548   -2.1855    0.0000 C   0  0  0  0  0  0  0  0  0  0  0  0
   -2.6401   -3.1891    0.0000 C   0  0  0  0  0  0  0  0  0  0  0  0
   -1.2135   -2.7256    0.0000 C   0  0  0  0  0  0  0  0  0  0  0  0
   -0.0000   -3.6073    0.0000 C   0  0  0  0  0  0  0  0  0  0  0  0
    0.0000   -5.1073    0.0000 O   0  0  0  0  0  0  0  0  0  0  0  0
    1.2135   -2.7256    0.0000 N   0  0  0  0  0  0  0  0  0  0  0  0
    0.7500   -1.2990    0.0000 C   0  0  0  0  0  0  0  0  0  0  0  0
    1.5000    0.0000    0.0000 C   0  0  0  0  0  0  0  0  0  0  0  0
    0.7500    1.2990    0.0000 C   0  0  0  0  0  0  0  0  0  0  0  0
   -0.7500    1.2990    0.0000 C   0  0  0  0  0  0  0  0  0  0  0  0
   -1.5000    2.5981    0.0000 N   0  0  0  0  0  0  0  0  0  0  0  0
   -0.7500    3.8971    0.0000 C   0  0  0  0  0  0  0  0  0  0  0  0
   -1.5000    5.1962    0.0000 N   0  0  0  0  0  0  0  0  0  0  0  0
    0.7500    3.8971    0.0000 O   0  0  0  0  0  0  0  0  0  0  0  0
   -1.5000    0.0000    0.0000 C   0  0  0  0  0  0  0  0  0  0  0  0
   -0.7500   -1.2990    0.0000 C   0  0  0  0  0  0  0  0  0  0  0  0
   -2.9520   -4.6564    0.0000 C   0  0  0  0  0  0  0  0  0  0  0  0
   -1.9483   -5.7711    0.0000 C   0  0  0  0  0  0  0  0  0  0  0  0
   -2.6983   -7.0701    0.0000 C   0  0  0  0  0  0  0  0  0  0  0  0
   -2.0882   -8.4404    0.0000 C   0  0  0  0  0  0  0  0  0  0  0  0
   -2.9699   -9.6540    0.0000 N   0  0  0  0  0  0  0  0  0  0  0  0
   -2.3597  -11.0243    0.0000 C   0  0  0  0  0  0  0  0  0  0  0  0
   -0.8680  -11.1811    0.0000 O   0  0  0  0  0  0  0  0  0  0  0  0
   -3.2414  -12.2378    0.0000 C   0  0  0  0  0  0  0  0  0  0  0  0
   -2.6313  -13.6081    0.0000 N   0  0  0  0  0  0  0  0  0  0  0  0
   -4.1655   -6.7583    0.0000 C   0  0  0  0  0  0  0  0  0  0  0  0
   -4.3223   -5.2665    0.0000 N   0  0  0  0  0  0  0  0  0  0  0  0
  1  2  1  0
  2  3  2  0
  3  4  1  0
  4  5  2  0
  4  6  1  0
  6  7  1  0
  7  8  2  0
  8  9  1  0
  9 10  2  0
 10 11  1  0
 11 12  1  0
 12 13  1  0
 12 14  2  0
 10 15  1  0
 15 16  2  0
  2 17  1  0
 17 18  2  0
 18 19  1  0
 19 20  1  0
 20 21  1  0
 21 22  1  0
 22 23  2  0
 22 24  1  0
 24 25  1  0
 19 26  2  0
 26 27  1  0
 16  3  1  0
 27 17  1  0
 16  7  1  0
M  END
>  <Compound_ID>  (61) 
CHEMBL228812

>  <Active>  (61) 
1

>  <Smiles>  (61) 
C/C(=C1/C(=O)Nc2ccc(NC(N)=O)cc21)c1cc(CNC(=O)CN)c[nH]1

>  <canonical_smi>  (61) 
C/C(=C1/C(=O)Nc2ccc(NC(N)=O)cc21)c1cc(CNC(=O)CN)c[nH]1

>  <Set>  (61) 
G2 active

>  <Set_type>  (61) 
Train

>  <MW>  (61) 
368.4

>  <HBD>  (61) 
6

>  <HBA>  (61) 
4

>  <NRB>  (61) 
5

>  <NR>  (61) 
3

>  <NAR>  (61) 
2

>  <PSA>  (61) 
155.13

>  <Standard Type>  (61) 
nan

>  <Standard Relation>  (61) 
nan

>  <Standard Units>  (61) 
nan

>  <Standard Value>  (61) 
nan

>  <Assay ChEMBL ID>  (61) 
nan

>  <Assay Description>  (61) 
nan

>  <BAO Label>  (61) 
nan

$$$$

     RDKit          2D

 31 34  0  0  0  0  0  0  0  0999 V2000
   -3.7548   -2.1855    0.0000 C   0  0  0  0  0  0  0  0  0  0  0  0
   -2.6401   -3.1891    0.0000 C   0  0  0  0  0  0  0  0  0  0  0  0
   -1.2135   -2.7256    0.0000 C   0  0  0  0  0  0  0  0  0  0  0  0
   -0.0000   -3.6073    0.0000 C   0  0  0  0  0  0  0  0  0  0  0  0
    0.0000   -5.1073    0.0000 O   0  0  0  0  0  0  0  0  0  0  0  0
    1.2135   -2.7256    0.0000 N   0  0  0  0  0  0  0  0  0  0  0  0
    0.7500   -1.2990    0.0000 C   0  0  0  0  0  0  0  0  0  0  0  0
    1.5000    0.0000    0.0000 C   0  0  0  0  0  0  0  0  0  0  0  0
    0.7500    1.2990    0.0000 C   0  0  0  0  0  0  0  0  0  0  0  0
   -0.7500    1.2990    0.0000 C   0  0  0  0  0  0  0  0  0  0  0  0
   -1.5000    2.5981    0.0000 N   0  0  0  0  0  0  0  0  0  0  0  0
   -0.7500    3.8971    0.0000 C   0  0  0  0  0  0  0  0  0  0  0  0
   -1.5000    5.1962    0.0000 N   0  0  0  0  0  0  0  0  0  0  0  0
    0.7500    3.8971    0.0000 O   0  0  0  0  0  0  0  0  0  0  0  0
   -1.5000    0.0000    0.0000 C   0  0  0  0  0  0  0  0  0  0  0  0
   -0.7500   -1.2990    0.0000 C   0  0  0  0  0  0  0  0  0  0  0  0
   -2.9520   -4.6564    0.0000 C   0  0  0  0  0  0  0  0  0  0  0  0
   -1.9483   -5.7711    0.0000 C   0  0  0  0  0  0  0  0  0  0  0  0
   -2.6983   -7.0701    0.0000 C   0  0  0  0  0  0  0  0  0  0  0  0
   -2.0882   -8.4404    0.0000 C   0  0  0  0  0  0  0  0  0  0  0  0
   -2.9699   -9.6540    0.0000 N   0  0  0  0  0  0  0  0  0  0  0  0
   -2.3597  -11.0243    0.0000 C   0  0  0  0  0  0  0  0  0  0  0  0
   -0.8680  -11.1811    0.0000 O   0  0  0  0  0  0  0  0  0  0  0  0
   -3.2414  -12.2378    0.0000 C   0  0  0  0  0  0  0  0  0  0  0  0
   -4.7332  -12.0810    0.0000 C   0  0  0  0  0  0  0  0  0  0  0  0
   -5.6149  -13.2945    0.0000 N   0  0  0  0  0  0  0  0  0  0  0  0
   -5.0048  -14.6649    0.0000 C   0  0  0  0  0  0  0  0  0  0  0  0
   -3.5130  -14.8217    0.0000 C   0  0  0  0  0  0  0  0  0  0  0  0
   -2.6313  -13.6081    0.0000 N   0  0  0  0  0  0  0  0  0  0  0  0
   -4.1655   -6.7583    0.0000 C   0  0  0  0  0  0  0  0  0  0  0  0
   -4.3223   -5.2665    0.0000 N   0  0  0  0  0  0  0  0  0  0  0  0
  1  2  1  0
  2  3  2  0
  3  4  1  0
  4  5  2  0
  4  6  1  0
  6  7  1  0
  7  8  2  0
  8  9  1  0
  9 10  2  0
 10 11  1  0
 11 12  1  0
 12 13  1  0
 12 14  2  0
 10 15  1  0
 15 16  2  0
  2 17  1  0
 17 18  2  0
 18 19  1  0
 19 20  1  0
 20 21  1  0
 21 22  1  0
 22 23  2  0
 22 24  1  0
 24 25  1  0
 25 26  1  0
 26 27  1  0
 27 28  1  0
 28 29  1  0
 19 30  2  0
 30 31  1  0
 16  3  1  0
 31 17  1  0
 16  7  1  0
 29 24  1  0
M  END
>  <Compound_ID>  (62) 
CHEMBL228811

>  <Active>  (62) 
1

>  <Smiles>  (62) 
C/C(=C1/C(=O)Nc2ccc(NC(N)=O)cc21)c1cc(CNC(=O)C2CNCCN2)c[nH]1

>  <canonical_smi>  (62) 
C/C(=C1/C(=O)Nc2ccc(NC(N)=O)cc21)c1cc(CNC(=O)C2CNCCN2)c[nH]1

>  <Set>  (62) 
G2 active

>  <Set_type>  (62) 
Train

>  <MW>  (62) 
423.48

>  <HBD>  (62) 
7

>  <HBA>  (62) 
5

>  <NRB>  (62) 
5

>  <NR>  (62) 
4

>  <NAR>  (62) 
2

>  <PSA>  (62) 
153.17

>  <Standard Type>  (62) 
nan

>  <Standard Relation>  (62) 
nan

>  <Standard Units>  (62) 
nan

>  <Standard Value>  (62) 
nan

>  <Assay ChEMBL ID>  (62) 
nan

>  <Assay Description>  (62) 
nan

>  <BAO Label>  (62) 
nan

$$$$

     RDKit          2D

 31 34  0  0  0  0  0  0  0  0999 V2000
   -3.7548   -2.1855    0.0000 C   0  0  0  0  0  0  0  0  0  0  0  0
   -2.6401   -3.1891    0.0000 C   0  0  0  0  0  0  0  0  0  0  0  0
   -1.2135   -2.7256    0.0000 C   0  0  0  0  0  0  0  0  0  0  0  0
   -0.0000   -3.6073    0.0000 C   0  0  0  0  0  0  0  0  0  0  0  0
    0.0000   -5.1073    0.0000 O   0  0  0  0  0  0  0  0  0  0  0  0
    1.2135   -2.7256    0.0000 N   0  0  0  0  0  0  0  0  0  0  0  0
    0.7500   -1.2990    0.0000 C   0  0  0  0  0  0  0  0  0  0  0  0
    1.5000    0.0000    0.0000 C   0  0  0  0  0  0  0  0  0  0  0  0
    0.7500    1.2990    0.0000 C   0  0  0  0  0  0  0  0  0  0  0  0
   -0.7500    1.2990    0.0000 C   0  0  0  0  0  0  0  0  0  0  0  0
   -1.5000    2.5981    0.0000 N   0  0  0  0  0  0  0  0  0  0  0  0
   -0.7500    3.8971    0.0000 C   0  0  0  0  0  0  0  0  0  0  0  0
   -1.5000    5.1962    0.0000 N   0  0  0  0  0  0  0  0  0  0  0  0
    0.7500    3.8971    0.0000 O   0  0  0  0  0  0  0  0  0  0  0  0
   -1.5000    0.0000    0.0000 C   0  0  0  0  0  0  0  0  0  0  0  0
   -0.7500   -1.2990    0.0000 C   0  0  0  0  0  0  0  0  0  0  0  0
   -2.9520   -4.6564    0.0000 C   0  0  0  0  0  0  0  0  0  0  0  0
   -1.9483   -5.7711    0.0000 C   0  0  0  0  0  0  0  0  0  0  0  0
   -2.6983   -7.0701    0.0000 C   0  0  0  0  0  0  0  0  0  0  0  0
   -2.0882   -8.4404    0.0000 C   0  0  0  0  0  0  0  0  0  0  0  0
   -2.9699   -9.6540    0.0000 N   0  0  0  0  0  0  0  0  0  0  0  0
   -2.3597  -11.0243    0.0000 C   0  0  0  0  0  0  0  0  0  0  0  0
   -0.8680  -11.1811    0.0000 O   0  0  0  0  0  0  0  0  0  0  0  0
   -3.2414  -12.2378    0.0000 C   0  0  0  0  0  0  0  0  0  0  0  0
   -4.7332  -12.0810    0.0000 C   0  0  0  0  0  0  0  0  0  0  0  0
   -5.6149  -13.2945    0.0000 C   0  0  0  0  0  0  0  0  0  0  0  0
   -5.0048  -14.6649    0.0000 N   0  0  0  0  0  0  0  0  0  0  0  0
   -3.5130  -14.8217    0.0000 C   0  0  0  0  0  0  0  0  0  0  0  0
   -2.6313  -13.6081    0.0000 C   0  0  0  0  0  0  0  0  0  0  0  0
   -4.1655   -6.7583    0.0000 C   0  0  0  0  0  0  0  0  0  0  0  0
   -4.3223   -5.2665    0.0000 N   0  0  0  0  0  0  0  0  0  0  0  0
  1  2  1  0
  2  3  2  0
  3  4  1  0
  4  5  2  0
  4  6  1  0
  6  7  1  0
  7  8  2  0
  8  9  1  0
  9 10  2  0
 10 11  1  0
 11 12  1  0
 12 13  1  0
 12 14  2  0
 10 15  1  0
 15 16  2  0
  2 17  1  0
 17 18  2  0
 18 19  1  0
 19 20  1  0
 20 21  1  0
 21 22  1  0
 22 23  2  0
 22 24  1  0
 24 25  2  0
 25 26  1  0
 26 27  2  0
 27 28  1  0
 28 29  2  0
 19 30  2  0
 30 31  1  0
 16  3  1  0
 31 17  1  0
 16  7  1  0
 29 24  1  0
M  END
>  <Compound_ID>  (63) 
CHEMBL228756

>  <Active>  (63) 
1

>  <Smiles>  (63) 
C/C(=C1/C(=O)Nc2ccc(NC(N)=O)cc21)c1cc(CNC(=O)c2ccncc2)c[nH]1

>  <canonical_smi>  (63) 
C/C(=C1/C(=O)Nc2ccc(NC(N)=O)cc21)c1cc(CNC(=O)c2ccncc2)c[nH]1

>  <Set>  (63) 
G2 active

>  <Set_type>  (63) 
Train

>  <MW>  (63) 
416.44

>  <HBD>  (63) 
5

>  <HBA>  (63) 
4

>  <NRB>  (63) 
5

>  <NR>  (63) 
4

>  <NAR>  (63) 
3

>  <PSA>  (63) 
142.0

>  <Standard Type>  (63) 
nan

>  <Standard Relation>  (63) 
nan

>  <Standard Units>  (63) 
nan

>  <Standard Value>  (63) 
nan

>  <Assay ChEMBL ID>  (63) 
nan

>  <Assay Description>  (63) 
nan

>  <BAO Label>  (63) 
nan

$$$$

     RDKit          2D

 33 35  0  0  0  0  0  0  0  0999 V2000
   -3.7548   -2.1855    0.0000 C   0  0  0  0  0  0  0  0  0  0  0  0
   -2.6401   -3.1891    0.0000 C   0  0  0  0  0  0  0  0  0  0  0  0
   -1.2135   -2.7256    0.0000 N   0  0  0  0  0  0  0  0  0  0  0  0
   -0.0000   -3.6073    0.0000 C   0  0  0  0  0  0  0  0  0  0  0  0
   -0.0000   -5.1073    0.0000 C   0  0  0  0  0  0  0  0  0  0  0  0
    1.2135   -5.9890    0.0000 N   0  0  0  0  0  0  0  0  0  0  0  0
    0.7500   -7.4156    0.0000 O   0  0  0  0  0  0  0  0  0  0  0  0
   -0.7500   -7.4156    0.0000 N   0  0  0  0  0  0  0  0  0  0  0  0
   -1.2135   -5.9890    0.0000 C   0  0  0  0  0  0  0  0  0  0  0  0
   -2.6401   -5.5255    0.0000 N   0  0  0  0  0  0  0  0  0  0  0  0
    1.2135   -2.7256    0.0000 N   0  0  0  0  0  0  0  0  0  0  0  0
    0.7500   -1.2990    0.0000 C   0  0  0  0  0  0  0  0  0  0  0  0
    1.5000    0.0000    0.0000 C   0  0  0  0  0  0  0  0  0  0  0  0
    3.0000    0.0000    0.0000 C   0  0  0  0  0  0  0  0  0  0  0  0
    4.5000    0.0000    0.0000 C   0  0  0  0  0  0  0  0  0  0  0  0
    6.0000    0.0000    0.0000 C   0  0  0  0  0  0  0  0  0  0  0  0
    6.0000   -1.5000    0.0000 C   0  0  0  0  0  0  0  0  0  0  0  0
    6.0000    1.5000    0.0000 C   0  0  0  0  0  0  0  0  0  0  0  0
    7.5000    0.0000    0.0000 O   0  0  0  0  0  0  0  0  0  0  0  0
    0.7500    1.2990    0.0000 N   0  0  0  0  0  0  0  0  0  0  0  0
   -0.7500    1.2990    0.0000 C   0  0  0  0  0  0  0  0  0  0  0  0
   -1.5000    0.0000    0.0000 C   0  0  0  0  0  0  0  0  0  0  0  0
   -3.0000    0.0000    0.0000 O   0  0  0  0  0  0  0  0  0  0  0  0
   -3.7500    1.2990    0.0000 C   0  0  0  0  0  0  0  0  0  0  0  0
   -5.2500    1.2990    0.0000 C   0  0  0  0  0  0  0  0  0  0  0  0
   -6.0000    2.5981    0.0000 C   0  0  0  0  0  0  0  0  0  0  0  0
   -7.5000    2.5981    0.0000 N   0  0  0  0  0  0  0  0  0  0  0  0
   -8.2500    3.8971    0.0000 C   0  0  0  0  0  0  0  0  0  0  0  0
   -9.7500    3.8971    0.0000 C   0  0  0  0  0  0  0  0  0  0  0  0
  -10.5000    2.5981    0.0000 O   0  0  0  0  0  0  0  0  0  0  0  0
  -10.5000    5.1962    0.0000 C   0  0  0  0  0  0  0  0  0  0  0  0
  -12.0000    5.1962    0.0000 O   0  0  0  0  0  0  0  0  0  0  0  0
   -0.7500   -1.2990    0.0000 C   0  0  0  0  0  0  0  0  0  0  0  0
  1  2  1  0
  2  3  1  0
  3  4  1  0
  4  5  1  0
  5  6  2  0
  6  7  1  0
  7  8  1  0
  8  9  2  0
  9 10  1  0
  4 11  2  0
 11 12  1  0
 12 13  2  0
 13 14  1  0
 14 15  3  0
 15 16  1  0
 16 17  1  0
 16 18  1  0
 16 19  1  0
 13 20  1  0
 20 21  2  0
 21 22  1  0
 22 23  1  0
 23 24  1  0
 24 25  1  0
 25 26  1  0
 26 27  1  0
 27 28  1  0
 28 29  1  0
 29 30  1  6
 29 31  1  0
 31 32  1  0
 22 33  2  0
 33  3  1  0
  9  5  1  0
 33 12  1  0
M  END
>  <Compound_ID>  (64) 
CHEMBL522351

>  <Active>  (64) 
1

>  <Smiles>  (64) 
CCn1c(-c2nonc2N)nc2c(C#CC(C)(C)O)ncc(OCCCNC[C@H](O)CO)c21

>  <canonical_smi>  (64) 
CCn1c(-c2nonc2N)nc2c(C#CC(C)(C)O)ncc(OCCCNC[C@H](O)CO)c21

>  <Set>  (64) 
G2 active

>  <Set_type>  (64) 
Train

>  <MW>  (64) 
459.51

>  <HBD>  (64) 
5

>  <HBA>  (64) 
11

>  <NRB>  (64) 
10

>  <NR>  (64) 
3

>  <NAR>  (64) 
3

>  <PSA>  (64) 
177.6

>  <Standard Type>  (64) 
nan

>  <Standard Relation>  (64) 
nan

>  <Standard Units>  (64) 
nan

>  <Standard Value>  (64) 
nan

>  <Assay ChEMBL ID>  (64) 
nan

>  <Assay Description>  (64) 
nan

>  <BAO Label>  (64) 
nan

$$$$

     RDKit          2D

 28 31  0  0  0  0  0  0  0  0999 V2000
   -9.0638   -4.9905    0.0000 N   0  0  0  0  0  0  0  0  0  0  0  0
   -8.1821   -3.7770    0.0000 C   0  0  0  0  0  0  0  0  0  0  0  0
   -8.7923   -2.4067    0.0000 C   0  0  0  0  0  0  0  0  0  0  0  0
  -10.2840   -2.2499    0.0000 C   0  0  0  0  0  0  0  0  0  0  0  0
  -11.1657   -3.4634    0.0000 C   0  0  0  0  0  0  0  0  0  0  0  0
  -12.6575   -3.3066    0.0000 C   0  0  0  0  0  0  0  0  0  0  0  0
  -13.5392   -4.5201    0.0000 C   0  0  0  0  0  0  0  0  0  0  0  0
  -12.9291   -5.8905    0.0000 C   0  0  0  0  0  0  0  0  0  0  0  0
  -11.4373   -6.0472    0.0000 C   0  0  0  0  0  0  0  0  0  0  0  0
  -10.5556   -4.8337    0.0000 C   0  0  0  0  0  0  0  0  0  0  0  0
   -7.9106   -1.1931    0.0000 N   0  0  0  0  0  0  0  0  0  0  0  0
   -6.4188   -1.3499    0.0000 C   0  0  0  0  0  0  0  0  0  0  0  0
   -5.8087   -2.7203    0.0000 O   0  0  0  0  0  0  0  0  0  0  0  0
   -5.5371   -0.1364    0.0000 C   0  0  0  0  0  0  0  0  0  0  0  0
   -6.0006    1.2902    0.0000 C   0  0  0  0  0  0  0  0  0  0  0  0
   -4.7871    2.1718    0.0000 C   0  0  0  0  0  0  0  0  0  0  0  0
   -4.7871    3.6718    0.0000 Br  0  0  0  0  0  0  0  0  0  0  0  0
   -3.5736    1.2902    0.0000 C   0  0  0  0  0  0  0  0  0  0  0  0
   -2.1470    1.7537    0.0000 C   0  0  0  0  0  0  0  0  0  0  0  0
   -1.8351    3.2209    0.0000 C   0  0  0  0  0  0  0  0  0  0  0  0
   -0.4086    3.6844    0.0000 C   0  0  0  0  0  0  0  0  0  0  0  0
    0.7062    2.6807    0.0000 N   0  0  0  0  0  0  0  0  0  0  0  0
    0.3943    1.2135    0.0000 C   0  0  0  0  0  0  0  0  0  0  0  0
    1.2760    0.0000    0.0000 N   0  0  0  0  0  0  0  0  0  0  0  0
    0.3943   -1.2135    0.0000 C   0  0  0  0  0  0  0  0  0  0  0  0
   -1.0323   -0.7500    0.0000 C   0  0  0  0  0  0  0  0  0  0  0  0
   -1.0323    0.7500    0.0000 C   0  0  0  0  0  0  0  0  0  0  0  0
   -4.0371   -0.1364    0.0000 S   0  0  0  0  0  0  0  0  0  0  0  0
  1  2  1  0
  3  2  1  6
  3  4  1  0
  4  5  1  0
  5  6  1  0
  6  7  1  0
  7  8  1  0
  8  9  1  0
  9 10  1  0
  3 11  1  0
 11 12  1  0
 12 13  2  0
 12 14  1  0
 14 15  2  0
 15 16  1  0
 16 17  1  0
 16 18  2  0
 18 19  1  0
 19 20  2  0
 20 21  1  0
 21 22  2  0
 22 23  1  0
 23 24  1  0
 24 25  1  0
 25 26  2  0
 26 27  1  0
 18 28  1  0
 10  5  1  0
 28 14  1  0
 27 19  1  0
 27 23  2  0
M  END
>  <Compound_ID>  (65) 
CHEMBL470598

>  <Active>  (65) 
1

>  <Smiles>  (65) 
NC[C@H](CC1CCCCC1)NC(=O)c1cc(Br)c(-c2ccnc3[nH]ccc23)s1

>  <canonical_smi>  (65) 
NC[C@H](CC1CCCCC1)NC(=O)c1cc(Br)c(-c2ccnc3[nH]ccc23)s1

>  <Set>  (65) 
G2 active

>  <Set_type>  (65) 
Train

>  <MW>  (65) 
461.43

>  <HBD>  (65) 
3

>  <HBA>  (65) 
3

>  <NRB>  (65) 
6

>  <NR>  (65) 
4

>  <NAR>  (65) 
3

>  <PSA>  (65) 
83.8

>  <Standard Type>  (65) 
nan

>  <Standard Relation>  (65) 
nan

>  <Standard Units>  (65) 
nan

>  <Standard Value>  (65) 
nan

>  <Assay ChEMBL ID>  (65) 
nan

>  <Assay Description>  (65) 
nan

>  <BAO Label>  (65) 
nan

$$$$

     RDKit          2D

 38 41  0  0  0  0  0  0  0  0999 V2000
   -3.7548   -2.1855    0.0000 C   0  0  0  0  0  0  0  0  0  0  0  0
   -2.6401   -3.1891    0.0000 C   0  0  0  0  0  0  0  0  0  0  0  0
   -1.2135   -2.7256    0.0000 N   0  0  0  0  0  0  0  0  0  0  0  0
   -0.0000   -3.6073    0.0000 C   0  0  0  0  0  0  0  0  0  0  0  0
   -0.0000   -5.1073    0.0000 C   0  0  0  0  0  0  0  0  0  0  0  0
    1.2135   -5.9890    0.0000 N   0  0  0  0  0  0  0  0  0  0  0  0
    0.7500   -7.4156    0.0000 O   0  0  0  0  0  0  0  0  0  0  0  0
   -0.7500   -7.4156    0.0000 N   0  0  0  0  0  0  0  0  0  0  0  0
   -1.2135   -5.9890    0.0000 C   0  0  0  0  0  0  0  0  0  0  0  0
   -2.6401   -5.5255    0.0000 N   0  0  0  0  0  0  0  0  0  0  0  0
    1.2135   -2.7256    0.0000 N   0  0  0  0  0  0  0  0  0  0  0  0
    0.7500   -1.2990    0.0000 C   0  0  0  0  0  0  0  0  0  0  0  0
    1.5000    0.0000    0.0000 C   0  0  0  0  0  0  0  0  0  0  0  0
    3.0000    0.0000    0.0000 C   0  0  0  0  0  0  0  0  0  0  0  0
    4.5000    0.0000    0.0000 C   0  0  0  0  0  0  0  0  0  0  0  0
    6.0000    0.0000    0.0000 C   0  0  0  0  0  0  0  0  0  0  0  0
    6.0000   -1.5000    0.0000 C   0  0  0  0  0  0  0  0  0  0  0  0
    6.0000    1.5000    0.0000 C   0  0  0  0  0  0  0  0  0  0  0  0
    7.5000    0.0000    0.0000 O   0  0  0  0  0  0  0  0  0  0  0  0
    0.7500    1.2990    0.0000 N   0  0  0  0  0  0  0  0  0  0  0  0
   -0.7500    1.2990    0.0000 C   0  0  0  0  0  0  0  0  0  0  0  0
   -1.5000    0.0000    0.0000 C   0  0  0  0  0  0  0  0  0  0  0  0
   -3.0000    0.0000    0.0000 O   0  0  0  0  0  0  0  0  0  0  0  0
   -3.7500    1.2990    0.0000 C   0  0  0  0  0  0  0  0  0  0  0  0
   -5.2500    1.2990    0.0000 C   0  0  0  0  0  0  0  0  0  0  0  0
   -6.0000    2.5981    0.0000 C   0  0  0  0  0  0  0  0  0  0  0  0
   -7.5000    2.5981    0.0000 N   0  0  0  0  0  0  0  0  0  0  0  0
   -8.2500    3.8971    0.0000 C   0  0  0  0  0  0  0  0  0  0  0  0
   -9.7500    3.8971    0.0000 C   0  0  0  0  0  0  0  0  0  0  0  0
  -10.5000    5.1962    0.0000 C   0  0  0  0  0  0  0  0  0  0  0  0
   -9.7500    6.4952    0.0000 C   0  0  0  0  0  0  0  0  0  0  0  0
  -10.5000    7.7942    0.0000 C   0  0  0  0  0  0  0  0  0  0  0  0
  -12.0000    7.7942    0.0000 C   0  0  0  0  0  0  0  0  0  0  0  0
  -12.7500    9.0933    0.0000 O   0  0  0  0  0  0  0  0  0  0  0  0
  -12.0000   10.3923    0.0000 C   0  0  0  0  0  0  0  0  0  0  0  0
  -12.7500    6.4952    0.0000 C   0  0  0  0  0  0  0  0  0  0  0  0
  -12.0000    5.1962    0.0000 C   0  0  0  0  0  0  0  0  0  0  0  0
   -0.7500   -1.2990    0.0000 C   0  0  0  0  0  0  0  0  0  0  0  0
  1  2  1  0
  2  3  1  0
  3  4  1  0
  4  5  1  0
  5  6  2  0
  6  7  1  0
  7  8  1  0
  8  9  2  0
  9 10  1  0
  4 11  2  0
 11 12  1  0
 12 13  2  0
 13 14  1  0
 14 15  3  0
 15 16  1  0
 16 17  1  0
 16 18  1  0
 16 19  1  0
 13 20  1  0
 20 21  2  0
 21 22  1  0
 22 23  1  0
 23 24  1  0
 24 25  1  0
 25 26  1  0
 26 27  1  0
 27 28  1  0
 28 29  1  0
 29 30  1  0
 30 31  2  0
 31 32  1  0
 32 33  2  0
 33 34  1  0
 34 35  1  0
 33 36  1  0
 36 37  2  0
 22 38  2  0
 38  3  1  0
  9  5  1  0
 38 12  1  0
 37 30  1  0
M  END
>  <Compound_ID>  (66) 
CHEMBL494060

>  <Active>  (66) 
1

>  <Smiles>  (66) 
CCn1c(-c2nonc2N)nc2c(C#CC(C)(C)O)ncc(OCCCNCCc3ccc(OC)cc3)c21

>  <canonical_smi>  (66) 
CCn1c(-c2nonc2N)nc2c(C#CC(C)(C)O)ncc(OCCCNCCc3ccc(OC)cc3)c21

>  <Set>  (66) 
G2 active

>  <Set_type>  (66) 
Train

>  <MW>  (66) 
519.61

>  <HBD>  (66) 
3

>  <HBA>  (66) 
10

>  <NRB>  (66) 
11

>  <NR>  (66) 
4

>  <NAR>  (66) 
4

>  <PSA>  (66) 
146.37

>  <Standard Type>  (66) 
nan

>  <Standard Relation>  (66) 
nan

>  <Standard Units>  (66) 
nan

>  <Standard Value>  (66) 
nan

>  <Assay ChEMBL ID>  (66) 
nan

>  <Assay Description>  (66) 
nan

>  <BAO Label>  (66) 
nan

$$$$

     RDKit          2D

 44 51  0  0  0  0  0  0  0  0999 V2000
    2.7760    0.0000    0.0000 O   0  0  0  0  0  0  0  0  0  0  0  0
    1.2760    0.0000    0.0000 C   0  0  0  0  0  0  0  0  0  0  0  0
    0.3943    1.2135    0.0000 N   0  0  0  0  0  0  0  0  0  0  0  0
   -1.0323    0.7500    0.0000 N   0  0  0  0  0  0  0  0  0  0  0  0
   -1.0323   -0.7500    0.0000 C   0  0  0  0  0  0  0  0  0  0  0  0
   -2.1470   -1.7537    0.0000 C   0  0  0  0  0  0  0  0  0  0  0  0
   -3.5736   -1.2902    0.0000 C   0  0  0  0  0  0  0  0  0  0  0  0
   -4.6883   -2.2939    0.0000 C   0  0  0  0  0  0  0  0  0  0  0  0
   -6.1149   -1.8303    0.0000 C   0  0  0  0  0  0  0  0  0  0  0  0
   -6.4268   -0.3631    0.0000 C   0  0  0  0  0  0  0  0  0  0  0  0
   -7.8533    0.1004    0.0000 C   0  0  0  0  0  0  0  0  0  0  0  0
   -8.9681   -0.9033    0.0000 C   0  0  0  0  0  0  0  0  0  0  0  0
   -8.6562   -2.3705    0.0000 C   0  0  0  0  0  0  0  0  0  0  0  0
   -7.2296   -2.8340    0.0000 C   0  0  0  0  0  0  0  0  0  0  0  0
   -4.3764   -3.7611    0.0000 C   0  0  0  0  0  0  0  0  0  0  0  0
   -5.4912   -4.7648    0.0000 C   0  0  0  0  0  0  0  0  0  0  0  0
   -6.9177   -4.3013    0.0000 C   0  0  0  0  0  0  0  0  0  0  0  0
   -8.0325   -5.3050    0.0000 C   0  0  0  0  0  0  0  0  0  0  0  0
   -7.7206   -6.7722    0.0000 C   0  0  0  0  0  0  0  0  0  0  0  0
   -8.8353   -7.7759    0.0000 C   0  0  0  0  0  0  0  0  0  0  0  0
  -10.2619   -7.3123    0.0000 N   0  0  0  0  0  0  0  0  0  0  0  0
  -10.5738   -5.8451    0.0000 C   0  0  0  0  0  0  0  0  0  0  0  0
  -12.0003   -5.3816    0.0000 C   0  0  0  0  0  0  0  0  0  0  0  0
  -13.1151   -6.3853    0.0000 C   0  0  0  0  0  0  0  0  0  0  0  0
  -14.5416   -5.9218    0.0000 C   0  0  0  0  0  0  0  0  0  0  0  0
  -15.7552   -6.8034    0.0000 N   0  0  0  0  0  0  0  0  0  0  0  0
  -16.9687   -5.9218    0.0000 N   0  0  0  0  0  0  0  0  0  0  0  0
  -16.5052   -4.4952    0.0000 C   0  0  0  0  0  0  0  0  0  0  0  0
  -17.3868   -3.2817    0.0000 C   0  0  0  0  0  0  0  0  0  0  0  0
  -16.7767   -1.9113    0.0000 C   0  0  0  0  0  0  0  0  0  0  0  0
  -17.6584   -0.6978    0.0000 C   0  0  0  0  0  0  0  0  0  0  0  0
  -19.1502   -0.8546    0.0000 C   0  0  0  0  0  0  0  0  0  0  0  0
  -19.7603   -2.2249    0.0000 C   0  0  0  0  0  0  0  0  0  0  0  0
  -18.8786   -3.4385    0.0000 N   0  0  0  0  0  0  0  0  0  0  0  0
  -15.0052   -4.4952    0.0000 N   0  0  0  0  0  0  0  0  0  0  0  0
  -12.8032   -7.8525    0.0000 C   0  0  0  0  0  0  0  0  0  0  0  0
  -11.3766   -8.3160    0.0000 C   0  0  0  0  0  0  0  0  0  0  0  0
   -6.2940   -7.2357    0.0000 C   0  0  0  0  0  0  0  0  0  0  0  0
   -5.1793   -6.2320    0.0000 C   0  0  0  0  0  0  0  0  0  0  0  0
   -2.9499   -4.2246    0.0000 N   0  0  0  0  0  0  0  0  0  0  0  0
   -1.8351   -3.2209    0.0000 C   0  0  0  0  0  0  0  0  0  0  0  0
   -0.4086   -3.6844    0.0000 C   0  0  0  0  0  0  0  0  0  0  0  0
    0.7062   -2.6807    0.0000 C   0  0  0  0  0  0  0  0  0  0  0  0
    0.3943   -1.2135    0.0000 N   0  0  0  0  0  0  0  0  0  0  0  0
  1  2  1  0
  2  3  2  0
  3  4  1  0
  4  5  2  0
  5  6  1  0
  6  7  2  0
  7  8  1  0
  8  9  1  0
  9 10  2  0
 10 11  1  0
 11 12  2  0
 12 13  1  0
 13 14  2  0
  8 15  2  0
 15 16  1  0
 16 17  2  0
 17 18  1  0
 18 19  2  0
 19 20  1  0
 20 21  1  0
 21 22  1  0
 22 23  1  0
 23 24  1  0
 24 25  1  0
 25 26  2  0
 26 27  1  0
 27 28  1  0
 28 29  1  0
 29 30  2  0
 30 31  1  0
 31 32  2  0
 32 33  1  0
 33 34  2  0
 28 35  2  0
 24 36  1  0
 36 37  1  0
 19 38  1  0
 38 39  2  0
 15 40  1  0
 40 41  2  0
 41 42  1  0
 42 43  2  0
 43 44  1  0
 44  2  1  0
 44  5  1  0
 41  6  1  0
 14  9  1  0
 39 16  1  0
 37 21  1  0
 35 25  1  0
 34 29  1  0
M  END
>  <Compound_ID>  (67) 
CHEMBL506077

>  <Active>  (67) 
1

>  <Smiles>  (67) 
Oc1nnc2c3cc(-c4ccccc4)c(-c4ccc(CN5CCC(c6n[nH]c(-c7ccccn7)n6)CC5)cc4)nc3ccn12

>  <canonical_smi>  (67) 
Oc1nnc2c3cc(-c4ccccc4)c(-c4ccc(CN5CCC(c6n[nH]c(-c7ccccn7)n6)CC5)cc4)nc3ccn12

>  <Set>  (67) 
G2 active

>  <Set_type>  (67) 
Train

>  <MW>  (67) 
579.67

>  <HBD>  (67) 
2

>  <HBA>  (67) 
8

>  <NRB>  (67) 
6

>  <NR>  (67) 
8

>  <NAR>  (67) 
7

>  <PSA>  (67) 
121.01

>  <Standard Type>  (67) 
nan

>  <Standard Relation>  (67) 
nan

>  <Standard Units>  (67) 
nan

>  <Standard Value>  (67) 
nan

>  <Assay ChEMBL ID>  (67) 
nan

>  <Assay Description>  (67) 
nan

>  <BAO Label>  (67) 
nan

$$$$

     RDKit          2D

 23 26  0  0  0  0  0  0  0  0999 V2000
   -7.8175    0.9250    0.0000 N   0  0  0  0  0  0  0  0  0  0  0  0
   -6.4268    0.3631    0.0000 C   0  0  0  0  0  0  0  0  0  0  0  0
   -7.2216   -0.9090    0.0000 C   0  0  0  0  0  0  0  0  0  0  0  0
   -8.7207   -0.8566    0.0000 C   0  0  0  0  0  0  0  0  0  0  0  0
   -9.5156   -2.1287    0.0000 C   0  0  0  0  0  0  0  0  0  0  0  0
   -8.8114   -3.4531    0.0000 C   0  0  0  0  0  0  0  0  0  0  0  0
   -9.6063   -4.7252    0.0000 Cl  0  0  0  0  0  0  0  0  0  0  0  0
   -7.3123   -3.5054    0.0000 C   0  0  0  0  0  0  0  0  0  0  0  0
   -6.5174   -2.2334    0.0000 C   0  0  0  0  0  0  0  0  0  0  0  0
   -5.3120   -0.6406    0.0000 C   0  0  0  0  0  0  0  0  0  0  0  0
   -3.8855   -0.1771    0.0000 C   0  0  0  0  0  0  0  0  0  0  0  0
   -3.5736    1.2902    0.0000 N   0  0  0  0  0  0  0  0  0  0  0  0
   -2.1470    1.7537    0.0000 C   0  0  0  0  0  0  0  0  0  0  0  0
   -1.8351    3.2209    0.0000 N   0  0  0  0  0  0  0  0  0  0  0  0
   -0.4086    3.6844    0.0000 C   0  0  0  0  0  0  0  0  0  0  0  0
    0.7062    2.6807    0.0000 N   0  0  0  0  0  0  0  0  0  0  0  0
    0.3943    1.2135    0.0000 C   0  0  0  0  0  0  0  0  0  0  0  0
    1.2760    0.0000    0.0000 N   0  0  0  0  0  0  0  0  0  0  0  0
    0.3943   -1.2135    0.0000 C   0  0  0  0  0  0  0  0  0  0  0  0
   -1.0323   -0.7500    0.0000 C   0  0  0  0  0  0  0  0  0  0  0  0
   -1.0323    0.7500    0.0000 C   0  0  0  0  0  0  0  0  0  0  0  0
   -4.6883    2.2939    0.0000 C   0  0  0  0  0  0  0  0  0  0  0  0
   -6.1149    1.8303    0.0000 C   0  0  0  0  0  0  0  0  0  0  0  0
  1  2  1  0
  2  3  1  0
  3  4  2  0
  4  5  1  0
  5  6  2  0
  6  7  1  0
  6  8  1  0
  8  9  2  0
  2 10  1  0
 10 11  1  0
 11 12  1  0
 12 13  1  0
 13 14  2  0
 14 15  1  0
 15 16  2  0
 16 17  1  0
 17 18  1  0
 18 19  1  0
 19 20  2  0
 20 21  1  0
 12 22  1  0
 22 23  1  0
 23  2  1  0
  9  3  1  0
 21 13  1  0
 21 17  2  0
M  END
>  <Compound_ID>  (68) 
CHEMBL259998

>  <Active>  (68) 
1

>  <Smiles>  (68) 
NC1(c2ccc(Cl)cc2)CCN(c2ncnc3[nH]ccc23)CC1

>  <canonical_smi>  (68) 
NC1(c2ccc(Cl)cc2)CCN(c2ncnc3[nH]ccc23)CC1

>  <Set>  (68) 
G2 active

>  <Set_type>  (68) 
Train

>  <MW>  (68) 
327.82

>  <HBD>  (68) 
2

>  <HBA>  (68) 
4

>  <NRB>  (68) 
2

>  <NR>  (68) 
4

>  <NAR>  (68) 
3

>  <PSA>  (68) 
70.83

>  <Standard Type>  (68) 
nan

>  <Standard Relation>  (68) 
nan

>  <Standard Units>  (68) 
nan

>  <Standard Value>  (68) 
nan

>  <Assay ChEMBL ID>  (68) 
nan

>  <Assay Description>  (68) 
nan

>  <BAO Label>  (68) 
nan

$$$$

     RDKit          2D

 27 31  0  0  0  0  0  0  0  0999 V2000
   -2.7395   -3.7189    0.0000 N   0  0  0  0  0  0  0  0  0  0  0  0
   -3.0000   -5.1962    0.0000 C   0  0  0  0  0  0  0  0  0  0  0  0
   -1.5000   -5.1962    0.0000 C   0  0  0  0  0  0  0  0  0  0  0  0
   -0.7500   -3.8971    0.0000 C   0  0  0  0  0  0  0  0  0  0  0  0
    0.7500   -3.8971    0.0000 C   0  0  0  0  0  0  0  0  0  0  0  0
    1.5000   -2.5981    0.0000 C   0  0  0  0  0  0  0  0  0  0  0  0
    0.7500   -1.2990    0.0000 C   0  0  0  0  0  0  0  0  0  0  0  0
    1.5000    0.0000    0.0000 C   0  0  0  0  0  0  0  0  0  0  0  0
    0.7500    1.2990    0.0000 C   0  0  0  0  0  0  0  0  0  0  0  0
   -0.7500    1.2990    0.0000 C   0  0  0  0  0  0  0  0  0  0  0  0
   -1.5000    0.0000    0.0000 C   0  0  0  0  0  0  0  0  0  0  0  0
   -0.7500   -1.2990    0.0000 C   0  0  0  0  0  0  0  0  0  0  0  0
   -1.5000   -2.5981    0.0000 C   0  0  0  0  0  0  0  0  0  0  0  0
   -2.7395   -6.6734    0.0000 C   0  0  0  0  0  0  0  0  0  0  0  0
   -3.8886   -7.6375    0.0000 C   0  0  0  0  0  0  0  0  0  0  0  0
   -5.2981   -7.1245    0.0000 N   0  0  0  0  0  0  0  0  0  0  0  0
   -6.4472   -8.0887    0.0000 C   0  0  0  0  0  0  0  0  0  0  0  0
   -7.8567   -7.5757    0.0000 N   0  0  0  0  0  0  0  0  0  0  0  0
   -9.0058   -8.5398    0.0000 C   0  0  0  0  0  0  0  0  0  0  0  0
   -8.7453  -10.0171    0.0000 N   0  0  0  0  0  0  0  0  0  0  0  0
   -7.3358  -10.5301    0.0000 C   0  0  0  0  0  0  0  0  0  0  0  0
   -6.7739  -11.9209    0.0000 N   0  0  0  0  0  0  0  0  0  0  0  0
   -5.2775  -11.8162    0.0000 C   0  0  0  0  0  0  0  0  0  0  0  0
   -4.9147  -10.3608    0.0000 C   0  0  0  0  0  0  0  0  0  0  0  0
   -6.1867   -9.5659    0.0000 C   0  0  0  0  0  0  0  0  0  0  0  0
   -5.5586   -5.6473    0.0000 C   0  0  0  0  0  0  0  0  0  0  0  0
   -4.4095   -4.6831    0.0000 C   0  0  0  0  0  0  0  0  0  0  0  0
  1  2  1  0
  2  3  1  0
  3  4  1  0
  4  5  2  0
  5  6  1  0
  6  7  2  0
  7  8  1  0
  8  9  2  0
  9 10  1  0
 10 11  2  0
 11 12  1  0
 12 13  2  0
  2 14  1  0
 14 15  1  0
 15 16  1  0
 16 17  1  0
 17 18  2  0
 18 19  1  0
 19 20  2  0
 20 21  1  0
 21 22  1  0
 22 23  1  0
 23 24  2  0
 24 25  1  0
 16 26  1  0
 26 27  1  0
 27  2  1  0
 13  4  1  0
 25 17  1  0
 12  7  1  0
 25 21  2  0
M  END
>  <Compound_ID>  (69) 
CHEMBL603882

>  <Active>  (69) 
1

>  <Smiles>  (69) 
NC1(Cc2ccc3ccccc3c2)CCN(c2ncnc3[nH]ccc23)CC1

>  <canonical_smi>  (69) 
NC1(Cc2ccc3ccccc3c2)CCN(c2ncnc3[nH]ccc23)CC1

>  <Set>  (69) 
G2 active

>  <Set_type>  (69) 
Train

>  <MW>  (69) 
357.46

>  <HBD>  (69) 
2

>  <HBA>  (69) 
4

>  <NRB>  (69) 
3

>  <NR>  (69) 
5

>  <NAR>  (69) 
4

>  <PSA>  (69) 
70.83

>  <Standard Type>  (69) 
nan

>  <Standard Relation>  (69) 
nan

>  <Standard Units>  (69) 
nan

>  <Standard Value>  (69) 
nan

>  <Assay ChEMBL ID>  (69) 
nan

>  <Assay Description>  (69) 
nan

>  <BAO Label>  (69) 
nan

$$$$

     RDKit          2D

 39 44  0  0  0  0  0  0  0  0999 V2000
   -9.9786  -11.0813    0.0000 C   0  0  0  0  0  0  0  0  0  0  0  0
  -10.8603   -9.8678    0.0000 C   0  0  0  0  0  0  0  0  0  0  0  0
  -12.3603   -9.8678    0.0000 O   0  0  0  0  0  0  0  0  0  0  0  0
  -12.8238   -8.4412    0.0000 C   0  0  0  0  0  0  0  0  0  0  0  0
  -11.6103   -7.5595    0.0000 C   0  0  0  0  0  0  0  0  0  0  0  0
  -10.3968   -8.4412    0.0000 C   0  0  0  0  0  0  0  0  0  0  0  0
   -8.9702   -7.9777    0.0000 C   0  0  0  0  0  0  0  0  0  0  0  0
   -7.8555   -8.9814    0.0000 N   0  0  0  0  0  0  0  0  0  0  0  0
   -6.4289   -8.5179    0.0000 C   0  0  0  0  0  0  0  0  0  0  0  0
   -5.3142   -9.5216    0.0000 N   0  0  0  0  0  0  0  0  0  0  0  0
   -6.1170   -7.0506    0.0000 C   0  0  0  0  0  0  0  0  0  0  0  0
   -4.6904   -6.5871    0.0000 O   0  0  0  0  0  0  0  0  0  0  0  0
   -4.3786   -5.1199    0.0000 C   0  0  0  0  0  0  0  0  0  0  0  0
   -2.9520   -4.6564    0.0000 C   0  0  0  0  0  0  0  0  0  0  0  0
   -1.8373   -5.6601    0.0000 N   0  0  0  0  0  0  0  0  0  0  0  0
   -2.6401   -3.1891    0.0000 C   0  0  0  0  0  0  0  0  0  0  0  0
   -1.2135   -2.7256    0.0000 C   0  0  0  0  0  0  0  0  0  0  0  0
   -0.0000   -3.6073    0.0000 C   0  0  0  0  0  0  0  0  0  0  0  0
    0.0000   -5.1073    0.0000 C   0  0  0  0  0  0  0  0  0  0  0  0
    0.0000   -6.6073    0.0000 N   0  0  0  0  0  0  0  0  0  0  0  0
    1.2135   -2.7256    0.0000 N   0  0  0  0  0  0  0  0  0  0  0  0
    0.7500   -1.2990    0.0000 C   0  0  0  0  0  0  0  0  0  0  0  0
    1.5000    0.0000    0.0000 C   0  0  0  0  0  0  0  0  0  0  0  0
    0.7500    1.2990    0.0000 C   0  0  0  0  0  0  0  0  0  0  0  0
   -0.7500    1.2990    0.0000 C   0  0  0  0  0  0  0  0  0  0  0  0
   -1.5000    0.0000    0.0000 C   0  0  0  0  0  0  0  0  0  0  0  0
   -0.7500   -1.2990    0.0000 C   0  0  0  0  0  0  0  0  0  0  0  0
   -7.2317   -6.0469    0.0000 C   0  0  0  0  0  0  0  0  0  0  0  0
   -8.6583   -6.5105    0.0000 C   0  0  0  0  0  0  0  0  0  0  0  0
   -9.7730   -5.5068    0.0000 C   0  0  0  0  0  0  0  0  0  0  0  0
  -11.1996   -5.9703    0.0000 C   0  0  0  0  0  0  0  0  0  0  0  0
  -12.3143   -4.9666    0.0000 N   0  0  0  0  0  0  0  0  0  0  0  0
  -12.0025   -3.4994    0.0000 C   0  0  0  0  0  0  0  0  0  0  0  0
  -12.8841   -2.2859    0.0000 N   0  0  0  0  0  0  0  0  0  0  0  0
  -12.0025   -1.0723    0.0000 N   0  0  0  0  0  0  0  0  0  0  0  0
  -10.5759   -1.5359    0.0000 C   0  0  0  0  0  0  0  0  0  0  0  0
   -9.3624   -0.6542    0.0000 C   0  0  0  0  0  0  0  0  0  0  0  0
  -10.5759   -3.0359    0.0000 C   0  0  0  0  0  0  0  0  0  0  0  0
   -9.4612   -4.0396    0.0000 N   0  0  0  0  0  0  0  0  0  0  0  0
  1  2  1  0
  2  3  1  0
  3  4  1  0
  4  5  2  0
  5  6  1  0
  6  7  1  0
  7  8  2  0
  8  9  1  0
  9 10  1  0
  9 11  2  0
 11 12  1  0
 12 13  1  0
 13 14  1  0
 14 15  1  6
 14 16  1  0
 16 17  1  0
 17 18  2  0
 18 19  1  0
 19 20  3  0
 18 21  1  0
 21 22  1  0
 22 23  2  0
 23 24  1  0
 24 25  2  0
 25 26  1  0
 26 27  2  0
 11 28  1  0
 28 29  2  0
 29 30  1  0
 30 31  2  0
 31 32  1  0
 32 33  2  0
 33 34  1  0
 34 35  1  0
 35 36  2  0
 36 37  1  0
 36 38  1  0
 38 39  2  0
  6  2  2  0
 29  7  1  0
 39 30  1  0
 27 17  1  0
 38 33  1  0
 27 22  1  0
M  END
>  <Compound_ID>  (70) 
CHEMBL605410

>  <Active>  (70) 
1

>  <Smiles>  (70) 
Cc1occc1-c1nc(N)c(OC[C@@H](N)Cc2c(C#N)[nH]c3ccccc23)cc1-c1cnc2[nH]nc(C)c2n1

>  <canonical_smi>  (70) 
Cc1occc1-c1nc(N)c(OC[C@@H](N)Cc2c(C#N)[nH]c3ccccc23)cc1-c1cnc2[nH]nc(C)c2n1

>  <Set>  (70) 
G2 active

>  <Set_type>  (70) 
Train

>  <MW>  (70) 
519.57

>  <HBD>  (70) 
4

>  <HBA>  (70) 
9

>  <NRB>  (70) 
7

>  <NR>  (70) 
6

>  <NAR>  (70) 
6

>  <PSA>  (70) 
181.34

>  <Standard Type>  (70) 
nan

>  <Standard Relation>  (70) 
nan

>  <Standard Units>  (70) 
nan

>  <Standard Value>  (70) 
nan

>  <Assay ChEMBL ID>  (70) 
nan

>  <Assay Description>  (70) 
nan

>  <BAO Label>  (70) 
nan

$$$$

     RDKit          2D

 42 46  0  0  0  0  0  0  0  0999 V2000
   14.6109    2.9142    0.0000 C   0  0  0  0  0  0  0  0  0  0  0  0
   13.3309    2.1320    0.0000 C   0  0  0  0  0  0  0  0  0  0  0  0
   14.3235    1.0073    0.0000 C   0  0  0  0  0  0  0  0  0  0  0  0
   12.3957    0.9593    0.0000 C   0  0  0  0  0  0  0  0  0  0  0  0
   10.9125    1.1828    0.0000 C   0  0  0  0  0  0  0  0  0  0  0  0
   10.3644    2.5791    0.0000 C   0  0  0  0  0  0  0  0  0  0  0  0
   11.2997    3.7519    0.0000 N   0  0  0  0  0  0  0  0  0  0  0  0
   10.7517    5.1482    0.0000 C   0  0  0  0  0  0  0  0  0  0  0  0
   11.6869    6.3209    0.0000 C   0  0  0  0  0  0  0  0  0  0  0  0
   11.1389    7.7172    0.0000 C   0  0  0  0  0  0  0  0  0  0  0  0
    9.6556    7.9408    0.0000 C   0  0  0  0  0  0  0  0  0  0  0  0
    9.1076    9.3371    0.0000 O   0  0  0  0  0  0  0  0  0  0  0  0
    8.7204    6.7681    0.0000 C   0  0  0  0  0  0  0  0  0  0  0  0
    7.2372    6.9916    0.0000 C   0  0  0  0  0  0  0  0  0  0  0  0
    6.6892    8.3879    0.0000 O   0  0  0  0  0  0  0  0  0  0  0  0
    6.3019    5.8189    0.0000 C   0  0  0  0  0  0  0  0  0  0  0  0
    4.8187    6.0424    0.0000 C   0  0  0  0  0  0  0  0  0  0  0  0
    3.8835    4.8697    0.0000 C   0  0  0  0  0  0  0  0  0  0  0  0
    4.4315    3.4734    0.0000 C   0  0  0  0  0  0  0  0  0  0  0  0
    3.4962    2.3006    0.0000 C   0  0  0  0  0  0  0  0  0  0  0  0
    4.0442    0.9043    0.0000 O   0  0  0  0  0  0  0  0  0  0  0  0
    2.0130    2.5242    0.0000 N   0  0  0  0  0  0  0  0  0  0  0  0
    1.0777    1.3515    0.0000 C   0  0  0  0  0  0  0  0  0  0  0  0
    1.7286    0.0000    0.0000 C   0  0  0  0  0  0  0  0  0  0  0  0
    1.0777   -1.3515    0.0000 C   0  0  0  0  0  0  0  0  0  0  0  0
   -0.3846   -1.6852    0.0000 C   0  0  0  0  0  0  0  0  0  0  0  0
   -1.5574   -0.7500    0.0000 N   0  0  0  0  0  0  0  0  0  0  0  0
   -1.5574    0.7500    0.0000 C   0  0  0  0  0  0  0  0  0  0  0  0
   -0.3846    1.6852    0.0000 C   0  0  0  0  0  0  0  0  0  0  0  0
   -0.7184    3.1476    0.0000 N   0  0  0  0  0  0  0  0  0  0  0  0
   -2.1518    3.5898    0.0000 C   0  0  0  0  0  0  0  0  0  0  0  0
   -3.2514    2.5695    0.0000 O   0  0  0  0  0  0  0  0  0  0  0  0
   -2.4856    5.0522    0.0000 C   0  0  0  0  0  0  0  0  0  0  0  0
   -1.3860    6.0724    0.0000 C   0  0  0  0  0  0  0  0  0  0  0  0
   -1.7198    7.5348    0.0000 C   0  0  0  0  0  0  0  0  0  0  0  0
   -3.1531    7.9769    0.0000 N   0  0  0  0  0  0  0  0  0  0  0  0
   -4.2527    6.9567    0.0000 C   0  0  0  0  0  0  0  0  0  0  0  0
   -3.9189    5.4943    0.0000 C   0  0  0  0  0  0  0  0  0  0  0  0
    5.9147    3.2498    0.0000 C   0  0  0  0  0  0  0  0  0  0  0  0
    6.8499    4.4226    0.0000 C   0  0  0  0  0  0  0  0  0  0  0  0
    9.2684    5.3718    0.0000 C   0  0  0  0  0  0  0  0  0  0  0  0
   12.7829    3.5283    0.0000 C   0  0  0  0  0  0  0  0  0  0  0  0
  1  2  1  0
  2  3  1  0
  2  4  1  0
  4  5  1  0
  5  6  1  0
  6  7  1  0
  7  8  1  0
  8  9  2  0
  9 10  1  0
 10 11  2  0
 11 12  1  0
 11 13  1  0
 13 14  1  0
 14 15  2  0
 14 16  1  0
 16 17  2  0
 17 18  1  0
 18 19  2  0
 19 20  1  0
 20 21  2  0
 20 22  1  0
 23 22  1  6
 23 24  1  0
 24 25  1  0
 25 26  1  0
 26 27  1  0
 27 28  1  0
 28 29  1  0
 29 30  1  1
 30 31  1  0
 31 32  2  0
 31 33  1  0
 33 34  2  0
 34 35  1  0
 35 36  2  0
 36 37  1  0
 37 38  2  0
 19 39  1  0
 39 40  2  0
 13 41  2  0
  7 42  1  0
 42  2  1  0
 41  8  1  0
 40 16  1  0
 29 23  1  0
 38 33  1  0
M  END
>  <Compound_ID>  (71) 
CHEMBL534916

>  <Active>  (71) 
1

>  <Smiles>  (71) 
CC1(C)CCCN(c2ccc(O)c(C(=O)c3ccc(C(=O)N[C@@H]4CCCNC[C@H]4NC(=O)c4ccncc4)cc3)c2)C1

>  <canonical_smi>  (71) 
CC1(C)CCCN(c2ccc(O)c(C(=O)c3ccc(C(=O)N[C@@H]4CCCNC[C@H]4NC(=O)c4ccncc4)cc3)c2)C1

>  <Set>  (71) 
G2 active

>  <Set_type>  (71) 
Train

>  <MW>  (71) 
569.71

>  <HBD>  (71) 
4

>  <HBA>  (71) 
7

>  <NRB>  (71) 
7

>  <NR>  (71) 
5

>  <NAR>  (71) 
3

>  <PSA>  (71) 
123.66

>  <Standard Type>  (71) 
nan

>  <Standard Relation>  (71) 
nan

>  <Standard Units>  (71) 
nan

>  <Standard Value>  (71) 
nan

>  <Assay ChEMBL ID>  (71) 
nan

>  <Assay Description>  (71) 
nan

>  <BAO Label>  (71) 
nan

$$$$

     RDKit          2D

 26 29  0  0  0  0  0  0  0  0999 V2000
   -7.8175    0.9250    0.0000 N   0  0  0  0  0  0  0  0  0  0  0  0
   -6.4268    0.3631    0.0000 C   0  0  0  0  0  0  0  0  0  0  0  0
   -7.2216   -0.9090    0.0000 C   0  0  0  0  0  0  0  0  0  0  0  0
   -8.7207   -0.8566    0.0000 O   0  0  0  0  0  0  0  0  0  0  0  0
   -9.5156   -2.1287    0.0000 C   0  0  0  0  0  0  0  0  0  0  0  0
  -11.0147   -2.0763    0.0000 C   0  0  0  0  0  0  0  0  0  0  0  0
  -11.7189   -0.7519    0.0000 C   0  0  0  0  0  0  0  0  0  0  0  0
  -13.2180   -0.6996    0.0000 C   0  0  0  0  0  0  0  0  0  0  0  0
  -14.0129   -1.9716    0.0000 C   0  0  0  0  0  0  0  0  0  0  0  0
  -15.5119   -1.9193    0.0000 Cl  0  0  0  0  0  0  0  0  0  0  0  0
  -13.3087   -3.2960    0.0000 C   0  0  0  0  0  0  0  0  0  0  0  0
  -11.8096   -3.3484    0.0000 C   0  0  0  0  0  0  0  0  0  0  0  0
   -5.3120   -0.6406    0.0000 C   0  0  0  0  0  0  0  0  0  0  0  0
   -3.8855   -0.1771    0.0000 C   0  0  0  0  0  0  0  0  0  0  0  0
   -3.5736    1.2902    0.0000 N   0  0  0  0  0  0  0  0  0  0  0  0
   -2.1470    1.7537    0.0000 C   0  0  0  0  0  0  0  0  0  0  0  0
   -1.8351    3.2209    0.0000 N   0  0  0  0  0  0  0  0  0  0  0  0
   -0.4086    3.6844    0.0000 C   0  0  0  0  0  0  0  0  0  0  0  0
    0.7062    2.6807    0.0000 N   0  0  0  0  0  0  0  0  0  0  0  0
    0.3943    1.2135    0.0000 C   0  0  0  0  0  0  0  0  0  0  0  0
    1.2760    0.0000    0.0000 N   0  0  0  0  0  0  0  0  0  0  0  0
    0.3943   -1.2135    0.0000 C   0  0  0  0  0  0  0  0  0  0  0  0
   -1.0323   -0.7500    0.0000 C   0  0  0  0  0  0  0  0  0  0  0  0
   -1.0323    0.7500    0.0000 C   0  0  0  0  0  0  0  0  0  0  0  0
   -4.6883    2.2939    0.0000 C   0  0  0  0  0  0  0  0  0  0  0  0
   -6.1149    1.8303    0.0000 C   0  0  0  0  0  0  0  0  0  0  0  0
  1  2  1  0
  2  3  1  0
  3  4  1  0
  4  5  1  0
  5  6  1  0
  6  7  2  0
  7  8  1  0
  8  9  2  0
  9 10  1  0
  9 11  1  0
 11 12  2  0
  2 13  1  0
 13 14  1  0
 14 15  1  0
 15 16  1  0
 16 17  2  0
 17 18  1  0
 18 19  2  0
 19 20  1  0
 20 21  1  0
 21 22  1  0
 22 23  2  0
 23 24  1  0
 15 25  1  0
 25 26  1  0
 26  2  1  0
 12  6  1  0
 24 16  1  0
 24 20  2  0
M  END
>  <Compound_ID>  (72) 
CHEMBL597793

>  <Active>  (72) 
1

>  <Smiles>  (72) 
NC1(COCc2ccc(Cl)cc2)CCN(c2ncnc3[nH]ccc23)CC1

>  <canonical_smi>  (72) 
NC1(COCc2ccc(Cl)cc2)CCN(c2ncnc3[nH]ccc23)CC1

>  <Set>  (72) 
G2 active

>  <Set_type>  (72) 
Train

>  <MW>  (72) 
371.87

>  <HBD>  (72) 
2

>  <HBA>  (72) 
5

>  <NRB>  (72) 
5

>  <NR>  (72) 
4

>  <NAR>  (72) 
3

>  <PSA>  (72) 
80.06

>  <Standard Type>  (72) 
nan

>  <Standard Relation>  (72) 
nan

>  <Standard Units>  (72) 
nan

>  <Standard Value>  (72) 
nan

>  <Assay ChEMBL ID>  (72) 
nan

>  <Assay Description>  (72) 
nan

>  <BAO Label>  (72) 
nan

$$$$

     RDKit          2D

 31 34  0  0  0  0  0  0  0  0999 V2000
   -3.7548   -2.1855    0.0000 C   0  0  0  0  0  0  0  0  0  0  0  0
   -2.6401   -3.1891    0.0000 C   0  0  0  0  0  0  0  0  0  0  0  0
   -1.2135   -2.7256    0.0000 N   0  0  0  0  0  0  0  0  0  0  0  0
   -0.0000   -3.6073    0.0000 C   0  0  0  0  0  0  0  0  0  0  0  0
   -0.0000   -5.1073    0.0000 C   0  0  0  0  0  0  0  0  0  0  0  0
    1.2135   -5.9890    0.0000 N   0  0  0  0  0  0  0  0  0  0  0  0
    0.7500   -7.4156    0.0000 O   0  0  0  0  0  0  0  0  0  0  0  0
   -0.7500   -7.4156    0.0000 N   0  0  0  0  0  0  0  0  0  0  0  0
   -1.2135   -5.9890    0.0000 C   0  0  0  0  0  0  0  0  0  0  0  0
   -2.6401   -5.5255    0.0000 N   0  0  0  0  0  0  0  0  0  0  0  0
    1.2135   -2.7256    0.0000 N   0  0  0  0  0  0  0  0  0  0  0  0
    0.7500   -1.2990    0.0000 C   0  0  0  0  0  0  0  0  0  0  0  0
    1.5000    0.0000    0.0000 C   0  0  0  0  0  0  0  0  0  0  0  0
    3.0000    0.0000    0.0000 C   0  0  0  0  0  0  0  0  0  0  0  0
    4.5000    0.0000    0.0000 C   0  0  0  0  0  0  0  0  0  0  0  0
    6.0000    0.0000    0.0000 C   0  0  0  0  0  0  0  0  0  0  0  0
    6.0000   -1.5000    0.0000 C   0  0  0  0  0  0  0  0  0  0  0  0
    6.0000    1.5000    0.0000 C   0  0  0  0  0  0  0  0  0  0  0  0
    7.5000    0.0000    0.0000 O   0  0  0  0  0  0  0  0  0  0  0  0
    0.7500    1.2990    0.0000 N   0  0  0  0  0  0  0  0  0  0  0  0
   -0.7500    1.2990    0.0000 C   0  0  0  0  0  0  0  0  0  0  0  0
   -1.5000    0.0000    0.0000 C   0  0  0  0  0  0  0  0  0  0  0  0
   -3.0000    0.0000    0.0000 O   0  0  0  0  0  0  0  0  0  0  0  0
   -3.7500    1.2990    0.0000 C   0  0  0  0  0  0  0  0  0  0  0  0
   -5.2500    1.2990    0.0000 C   0  0  0  0  0  0  0  0  0  0  0  0
   -6.0000    2.5981    0.0000 C   0  0  0  0  0  0  0  0  0  0  0  0
   -7.5000    2.5981    0.0000 C   0  0  0  0  0  0  0  0  0  0  0  0
   -8.2500    1.2990    0.0000 N   0  0  0  0  0  0  0  0  0  0  0  0
   -7.5000    0.0000    0.0000 C   0  0  0  0  0  0  0  0  0  0  0  0
   -6.0000    0.0000    0.0000 C   0  0  0  0  0  0  0  0  0  0  0  0
   -0.7500   -1.2990    0.0000 C   0  0  0  0  0  0  0  0  0  0  0  0
  1  2  1  0
  2  3  1  0
  3  4  1  0
  4  5  1  0
  5  6  2  0
  6  7  1  0
  7  8  1  0
  8  9  2  0
  9 10  1  0
  4 11  2  0
 11 12  1  0
 12 13  2  0
 13 14  1  0
 14 15  3  0
 15 16  1  0
 16 17  1  0
 16 18  1  0
 16 19  1  0
 13 20  1  0
 20 21  2  0
 21 22  1  0
 22 23  1  0
 23 24  1  0
 24 25  1  0
 25 26  1  0
 26 27  1  0
 27 28  1  0
 28 29  1  0
 29 30  1  0
 22 31  2  0
 31  3  1  0
  9  5  1  0
 31 12  1  0
 30 25  1  0
M  END
>  <Compound_ID>  (73) 
CHEMBL521658

>  <Active>  (73) 
1

>  <Smiles>  (73) 
CCn1c(-c2nonc2N)nc2c(C#CC(C)(C)O)ncc(OCC3CCNCC3)c21

>  <canonical_smi>  (73) 
CCn1c(-c2nonc2N)nc2c(C#CC(C)(C)O)ncc(OCC3CCNCC3)c21

>  <Set>  (73) 
G2 active

>  <Set_type>  (73) 
Train

>  <MW>  (73) 
425.49

>  <HBD>  (73) 
3

>  <HBA>  (73) 
9

>  <NRB>  (73) 
5

>  <NR>  (73) 
4

>  <NAR>  (73) 
3

>  <PSA>  (73) 
137.14

>  <Standard Type>  (73) 
nan

>  <Standard Relation>  (73) 
nan

>  <Standard Units>  (73) 
nan

>  <Standard Value>  (73) 
nan

>  <Assay ChEMBL ID>  (73) 
nan

>  <Assay Description>  (73) 
nan

>  <BAO Label>  (73) 
nan

$$$$

     RDKit          2D

 24 27  0  0  0  0  0  0  0  0999 V2000
   -8.1652   -1.5676    0.0000 N   0  0  0  0  0  0  0  0  0  0  0  0
   -7.8533   -0.1004    0.0000 C   0  0  0  0  0  0  0  0  0  0  0  0
   -8.9681    0.9033    0.0000 C   0  0  0  0  0  0  0  0  0  0  0  0
   -8.6562    2.3705    0.0000 C   0  0  0  0  0  0  0  0  0  0  0  0
   -9.7709    3.3742    0.0000 C   0  0  0  0  0  0  0  0  0  0  0  0
  -11.1975    2.9107    0.0000 C   0  0  0  0  0  0  0  0  0  0  0  0
  -12.3122    3.9144    0.0000 Cl  0  0  0  0  0  0  0  0  0  0  0  0
  -11.5094    1.4435    0.0000 C   0  0  0  0  0  0  0  0  0  0  0  0
  -10.3946    0.4398    0.0000 C   0  0  0  0  0  0  0  0  0  0  0  0
   -6.4268    0.3631    0.0000 C   0  0  0  0  0  0  0  0  0  0  0  0
   -5.3120   -0.6406    0.0000 C   0  0  0  0  0  0  0  0  0  0  0  0
   -3.8855   -0.1771    0.0000 C   0  0  0  0  0  0  0  0  0  0  0  0
   -3.5736    1.2902    0.0000 C   0  0  0  0  0  0  0  0  0  0  0  0
   -2.1470    1.7537    0.0000 C   0  0  0  0  0  0  0  0  0  0  0  0
   -1.8351    3.2209    0.0000 N   0  0  0  0  0  0  0  0  0  0  0  0
   -0.4086    3.6844    0.0000 C   0  0  0  0  0  0  0  0  0  0  0  0
    0.7062    2.6807    0.0000 N   0  0  0  0  0  0  0  0  0  0  0  0
    0.3943    1.2135    0.0000 C   0  0  0  0  0  0  0  0  0  0  0  0
    1.2760    0.0000    0.0000 N   0  0  0  0  0  0  0  0  0  0  0  0
    0.3943   -1.2135    0.0000 C   0  0  0  0  0  0  0  0  0  0  0  0
   -1.0323   -0.7500    0.0000 N   0  0  0  0  0  0  0  0  0  0  0  0
   -1.0323    0.7500    0.0000 C   0  0  0  0  0  0  0  0  0  0  0  0
   -4.6883    2.2939    0.0000 C   0  0  0  0  0  0  0  0  0  0  0  0
   -6.1149    1.8303    0.0000 C   0  0  0  0  0  0  0  0  0  0  0  0
  1  2  1  0
  2  3  1  0
  3  4  2  0
  4  5  1  0
  5  6  2  0
  6  7  1  0
  6  8  1  0
  8  9  2  0
  2 10  1  0
 10 11  2  0
 11 12  1  0
 12 13  2  0
 13 14  1  0
 14 15  2  0
 15 16  1  0
 16 17  2  0
 17 18  1  0
 18 19  1  0
 19 20  1  0
 20 21  2  0
 21 22  1  0
 13 23  1  0
 23 24  2  0
  9  3  1  0
 24 10  1  0
 22 14  1  0
 22 18  2  0
M  END
>  <Compound_ID>  (74) 
CHEMBL226712

>  <Active>  (74) 
1

>  <Smiles>  (74) 
NC(c1ccc(Cl)cc1)c1ccc(-c2ncnc3[nH]cnc23)cc1

>  <canonical_smi>  (74) 
NC(c1ccc(Cl)cc1)c1ccc(-c2ncnc3[nH]cnc23)cc1

>  <Set>  (74) 
G2 active

>  <Set_type>  (74) 
Train

>  <MW>  (74) 
335.8

>  <HBD>  (74) 
2

>  <HBA>  (74) 
4

>  <NRB>  (74) 
3

>  <NR>  (74) 
4

>  <NAR>  (74) 
4

>  <PSA>  (74) 
80.48

>  <Standard Type>  (74) 
nan

>  <Standard Relation>  (74) 
nan

>  <Standard Units>  (74) 
nan

>  <Standard Value>  (74) 
nan

>  <Assay ChEMBL ID>  (74) 
nan

>  <Assay Description>  (74) 
nan

>  <BAO Label>  (74) 
nan

$$$$

     RDKit          2D

 31 34  0  0  0  0  0  0  0  0999 V2000
    5.2500   -1.2990    0.0000 N   0  0  0  0  0  0  0  0  0  0  0  0
    3.7500   -1.2990    0.0000 C   0  0  0  0  0  0  0  0  0  0  0  0
    3.0000   -2.5981    0.0000 O   0  0  0  0  0  0  0  0  0  0  0  0
    3.0000    0.0000    0.0000 N   0  0  0  0  0  0  0  0  0  0  0  0
    1.5000    0.0000    0.0000 C   0  0  0  0  0  0  0  0  0  0  0  0
    0.7500   -1.2990    0.0000 C   0  0  0  0  0  0  0  0  0  0  0  0
   -0.7500   -1.2990    0.0000 C   0  0  0  0  0  0  0  0  0  0  0  0
   -1.5000    0.0000    0.0000 C   0  0  0  0  0  0  0  0  0  0  0  0
   -0.7500    1.2990    0.0000 C   0  0  0  0  0  0  0  0  0  0  0  0
    0.7500    1.2990    0.0000 C   0  0  0  0  0  0  0  0  0  0  0  0
   -1.7537    2.4138    0.0000 C   0  0  0  0  0  0  0  0  0  0  0  0
   -1.4418    3.8810    0.0000 C   0  0  0  0  0  0  0  0  0  0  0  0
   -2.5565    4.8847    0.0000 C   0  0  0  0  0  0  0  0  0  0  0  0
   -4.0238    4.5728    0.0000 C   0  0  0  0  0  0  0  0  0  0  0  0
   -4.7738    5.8718    0.0000 C   0  0  0  0  0  0  0  0  0  0  0  0
   -6.2655    6.0286    0.0000 C   0  0  0  0  0  0  0  0  0  0  0  0
   -7.1472    4.8151    0.0000 O   0  0  0  0  0  0  0  0  0  0  0  0
   -6.8757    7.3990    0.0000 N   0  0  0  0  0  0  0  0  0  0  0  0
   -8.3674    7.5557    0.0000 C   0  0  0  0  0  0  0  0  0  0  0  0
   -8.9775    8.9261    0.0000 C   0  0  0  0  0  0  0  0  0  0  0  0
  -10.4693    9.0829    0.0000 N   0  0  0  0  0  0  0  0  0  0  0  0
  -11.0794   10.4532    0.0000 C   0  0  0  0  0  0  0  0  0  0  0  0
  -12.5712   10.6100    0.0000 C   0  0  0  0  0  0  0  0  0  0  0  0
  -13.4529    9.3964    0.0000 C   0  0  0  0  0  0  0  0  0  0  0  0
  -12.8428    8.0261    0.0000 C   0  0  0  0  0  0  0  0  0  0  0  0
  -11.3510    7.8693    0.0000 C   0  0  0  0  0  0  0  0  0  0  0  0
   -3.7701    6.9866    0.0000 C   0  0  0  0  0  0  0  0  0  0  0  0
   -2.3998    6.3765    0.0000 N   0  0  0  0  0  0  0  0  0  0  0  0
   -3.1240    1.8037    0.0000 C   0  0  0  0  0  0  0  0  0  0  0  0
   -4.4231    2.5537    0.0000 O   0  0  0  0  0  0  0  0  0  0  0  0
   -2.9672    0.3119    0.0000 N   0  0  0  0  0  0  0  0  0  0  0  0
  1  2  1  0
  2  3  2  0
  2  4  1  0
  4  5  1  0
  5  6  2  0
  6  7  1  0
  7  8  2  0
  8  9  1  0
  9 10  2  0
  9 11  1  0
 11 12  2  0
 12 13  1  0
 13 14  2  0
 14 15  1  0
 15 16  1  0
 16 17  2  0
 16 18  1  0
 18 19  1  0
 19 20  1  0
 20 21  1  0
 21 22  1  0
 22 23  1  0
 23 24  1  0
 24 25  1  0
 25 26  1  0
 15 27  2  0
 27 28  1  0
 11 29  1  0
 29 30  2  0
 29 31  1  0
 10  5  1  0
 28 13  1  0
 31  8  1  0
 26 21  1  0
M  END
>  <Compound_ID>  (75) 
CHEMBL228701

>  <Active>  (75) 
1

>  <Smiles>  (75) 
NC(=O)Nc1ccc2c(c1)/C(=C/c1cc(C(=O)NCCN3CCCCC3)c[nH]1)C(=O)N2

>  <canonical_smi>  (75) 
NC(=O)Nc1ccc2c(c1)/C(=C/c1cc(C(=O)NCCN3CCCCC3)c[nH]1)C(=O)N2

>  <Set>  (75) 
G2 active

>  <Set_type>  (75) 
Train

>  <MW>  (75) 
422.49

>  <HBD>  (75) 
5

>  <HBA>  (75) 
4

>  <NRB>  (75) 
6

>  <NR>  (75) 
4

>  <NAR>  (75) 
2

>  <PSA>  (75) 
132.35

>  <Standard Type>  (75) 
nan

>  <Standard Relation>  (75) 
nan

>  <Standard Units>  (75) 
nan

>  <Standard Value>  (75) 
nan

>  <Assay ChEMBL ID>  (75) 
nan

>  <Assay Description>  (75) 
nan

>  <BAO Label>  (75) 
nan

$$$$

     RDKit          2D

 35 40  0  0  0  0  0  0  0  0999 V2000
   -2.6401   -3.1891    0.0000 C   0  0  0  0  0  0  0  0  0  0  0  0
   -1.2135   -2.7256    0.0000 C   0  0  0  0  0  0  0  0  0  0  0  0
   -0.0000   -3.6073    0.0000 N   0  0  0  0  0  0  0  0  0  0  0  0
    1.2135   -2.7256    0.0000 N   0  0  0  0  0  0  0  0  0  0  0  0
    0.7500   -1.2990    0.0000 C   0  0  0  0  0  0  0  0  0  0  0  0
    1.5000    0.0000    0.0000 C   0  0  0  0  0  0  0  0  0  0  0  0
    0.7500    1.2990    0.0000 C   0  0  0  0  0  0  0  0  0  0  0  0
   -0.7500    1.2990    0.0000 C   0  0  0  0  0  0  0  0  0  0  0  0
   -1.5000    2.5981    0.0000 C   0  0  0  0  0  0  0  0  0  0  0  0
   -0.7500    3.8971    0.0000 C   0  0  0  0  0  0  0  0  0  0  0  0
   -1.5000    5.1962    0.0000 C   0  0  0  0  0  0  0  0  0  0  0  0
   -0.7500    6.4952    0.0000 O   0  0  0  0  0  0  0  0  0  0  0  0
    0.7500    6.4952    0.0000 C   0  0  0  0  0  0  0  0  0  0  0  0
    1.5000    7.7942    0.0000 C   0  0  0  0  0  0  0  0  0  0  0  0
    0.7500    9.0933    0.0000 N   0  0  0  0  0  0  0  0  0  0  0  0
    3.0000    7.7942    0.0000 C   0  0  0  0  0  0  0  0  0  0  0  0
    3.7500    9.0933    0.0000 C   0  0  0  0  0  0  0  0  0  0  0  0
    3.1399   10.4636    0.0000 C   0  0  0  0  0  0  0  0  0  0  0  0
    4.2546   11.4673    0.0000 N   0  0  0  0  0  0  0  0  0  0  0  0
    5.5537   10.7173    0.0000 C   0  0  0  0  0  0  0  0  0  0  0  0
    6.9802   11.1808    0.0000 C   0  0  0  0  0  0  0  0  0  0  0  0
    8.0950   10.1771    0.0000 C   0  0  0  0  0  0  0  0  0  0  0  0
    7.7831    8.7099    0.0000 C   0  0  0  0  0  0  0  0  0  0  0  0
    6.3565    8.2464    0.0000 C   0  0  0  0  0  0  0  0  0  0  0  0
    5.2418    9.2501    0.0000 C   0  0  0  0  0  0  0  0  0  0  0  0
   -3.0000    5.1962    0.0000 C   0  0  0  0  0  0  0  0  0  0  0  0
   -3.7500    3.8971    0.0000 N   0  0  0  0  0  0  0  0  0  0  0  0
   -3.0000    2.5981    0.0000 C   0  0  0  0  0  0  0  0  0  0  0  0
   -3.7500    1.2990    0.0000 C   0  0  0  0  0  0  0  0  0  0  0  0
   -3.1399   -0.0713    0.0000 C   0  0  0  0  0  0  0  0  0  0  0  0
   -4.2546   -1.0750    0.0000 C   0  0  0  0  0  0  0  0  0  0  0  0
   -5.5537   -0.3250    0.0000 O   0  0  0  0  0  0  0  0  0  0  0  0
   -5.2418    1.1422    0.0000 C   0  0  0  0  0  0  0  0  0  0  0  0
   -1.5000    0.0000    0.0000 C   0  0  0  0  0  0  0  0  0  0  0  0
   -0.7500   -1.2990    0.0000 C   0  0  0  0  0  0  0  0  0  0  0  0
  1  2  1  0
  2  3  2  0
  3  4  1  0
  4  5  1  0
  5  6  2  0
  6  7  1  0
  7  8  2  0
  8  9  1  0
  9 10  2  0
 10 11  1  0
 11 12  1  0
 12 13  1  0
 13 14  1  0
 14 15  1  1
 14 16  1  0
 16 17  1  0
 17 18  2  0
 18 19  1  0
 19 20  1  0
 20 21  2  0
 21 22  1  0
 22 23  2  0
 23 24  1  0
 24 25  2  0
 11 26  2  0
 26 27  1  0
 27 28  2  0
 28 29  1  0
 29 30  1  0
 30 31  2  0
 31 32  1  0
 32 33  1  0
  8 34  1  0
 34 35  2  0
 35  2  1  0
 35  5  1  0
 28  9  1  0
 33 29  2  0
 25 17  1  0
 25 20  1  0
M  END
>  <Compound_ID>  (76) 
CHEMBL593490

>  <Active>  (76) 
1

>  <Smiles>  (76) 
Cc1n[nH]c2ccc(-c3cc(OC[C@@H](N)Cc4c[nH]c5ccccc45)cnc3-c3ccoc3)cc12

>  <canonical_smi>  (76) 
Cc1n[nH]c2ccc(-c3cc(OC[C@@H](N)Cc4c[nH]c5ccccc45)cnc3-c3ccoc3)cc12

>  <Set>  (76) 
G2 active

>  <Set_type>  (76) 
Train

>  <MW>  (76) 
463.54

>  <HBD>  (76) 
3

>  <HBA>  (76) 
5

>  <NRB>  (76) 
7

>  <NR>  (76) 
6

>  <NAR>  (76) 
6

>  <PSA>  (76) 
105.75

>  <Standard Type>  (76) 
nan

>  <Standard Relation>  (76) 
nan

>  <Standard Units>  (76) 
nan

>  <Standard Value>  (76) 
nan

>  <Assay ChEMBL ID>  (76) 
nan

>  <Assay Description>  (76) 
nan

>  <BAO Label>  (76) 
nan

$$$$

     RDKit          2D

 27 30  0  0  0  0  0  0  0  0999 V2000
   -7.8175    0.9250    0.0000 N   0  0  0  0  0  0  0  0  0  0  0  0
   -6.4268    0.3631    0.0000 C   0  0  0  0  0  0  0  0  0  0  0  0
   -7.2216   -0.9090    0.0000 C   0  0  0  0  0  0  0  0  0  0  0  0
   -6.5174   -2.2334    0.0000 O   0  0  0  0  0  0  0  0  0  0  0  0
   -8.7207   -0.8566    0.0000 N   0  0  0  0  0  0  0  0  0  0  0  0
   -9.5156   -2.1287    0.0000 C   0  0  0  0  0  0  0  0  0  0  0  0
  -11.0147   -2.0763    0.0000 C   0  0  0  0  0  0  0  0  0  0  0  0
  -11.7189   -0.7519    0.0000 C   0  0  0  0  0  0  0  0  0  0  0  0
  -13.2180   -0.6996    0.0000 C   0  0  0  0  0  0  0  0  0  0  0  0
  -14.0129   -1.9716    0.0000 C   0  0  0  0  0  0  0  0  0  0  0  0
  -15.5119   -1.9193    0.0000 Cl  0  0  0  0  0  0  0  0  0  0  0  0
  -13.3087   -3.2960    0.0000 C   0  0  0  0  0  0  0  0  0  0  0  0
  -11.8096   -3.3484    0.0000 C   0  0  0  0  0  0  0  0  0  0  0  0
   -5.3120   -0.6406    0.0000 C   0  0  0  0  0  0  0  0  0  0  0  0
   -3.8855   -0.1771    0.0000 C   0  0  0  0  0  0  0  0  0  0  0  0
   -3.5736    1.2902    0.0000 N   0  0  0  0  0  0  0  0  0  0  0  0
   -2.1470    1.7537    0.0000 C   0  0  0  0  0  0  0  0  0  0  0  0
   -1.8351    3.2209    0.0000 C   0  0  0  0  0  0  0  0  0  0  0  0
   -0.4086    3.6844    0.0000 C   0  0  0  0  0  0  0  0  0  0  0  0
    0.7062    2.6807    0.0000 N   0  0  0  0  0  0  0  0  0  0  0  0
    0.3943    1.2135    0.0000 C   0  0  0  0  0  0  0  0  0  0  0  0
    1.2760    0.0000    0.0000 N   0  0  0  0  0  0  0  0  0  0  0  0
    0.3943   -1.2135    0.0000 C   0  0  0  0  0  0  0  0  0  0  0  0
   -1.0323   -0.7500    0.0000 C   0  0  0  0  0  0  0  0  0  0  0  0
   -1.0323    0.7500    0.0000 C   0  0  0  0  0  0  0  0  0  0  0  0
   -4.6883    2.2939    0.0000 C   0  0  0  0  0  0  0  0  0  0  0  0
   -6.1149    1.8303    0.0000 C   0  0  0  0  0  0  0  0  0  0  0  0
  1  2  1  0
  2  3  1  0
  3  4  2  0
  3  5  1  0
  5  6  1  0
  6  7  1  0
  7  8  2  0
  8  9  1  0
  9 10  2  0
 10 11  1  0
 10 12  1  0
 12 13  2  0
  2 14  1  0
 14 15  1  0
 15 16  1  0
 16 17  1  0
 17 18  2  0
 18 19  1  0
 19 20  2  0
 20 21  1  0
 21 22  1  0
 22 23  1  0
 23 24  2  0
 24 25  1  0
 16 26  1  0
 26 27  1  0
 27  2  1  0
 13  7  1  0
 25 17  1  0
 25 21  2  0
M  END
>  <Compound_ID>  (77) 
CHEMBL599448

>  <Active>  (77) 
1

>  <Smiles>  (77) 
NC1(C(=O)NCc2ccc(Cl)cc2)CCN(c2ccnc3[nH]ccc23)CC1

>  <canonical_smi>  (77) 
NC1(C(=O)NCc2ccc(Cl)cc2)CCN(c2ccnc3[nH]ccc23)CC1

>  <Set>  (77) 
G2 active

>  <Set_type>  (77) 
Train

>  <MW>  (77) 
383.88

>  <HBD>  (77) 
3

>  <HBA>  (77) 
4

>  <NRB>  (77) 
4

>  <NR>  (77) 
4

>  <NAR>  (77) 
3

>  <PSA>  (77) 
87.04

>  <Standard Type>  (77) 
nan

>  <Standard Relation>  (77) 
nan

>  <Standard Units>  (77) 
nan

>  <Standard Value>  (77) 
nan

>  <Assay ChEMBL ID>  (77) 
nan

>  <Assay Description>  (77) 
nan

>  <BAO Label>  (77) 
nan

$$$$

     RDKit          2D

 24 27  0  0  0  0  0  0  0  0999 V2000
   -7.8175    0.9250    0.0000 N   0  0  0  0  0  0  0  0  0  0  0  0
   -6.4268    0.3631    0.0000 C   0  0  0  0  0  0  0  0  0  0  0  0
   -7.2216   -0.9090    0.0000 C   0  0  0  0  0  0  0  0  0  0  0  0
   -8.7207   -0.8566    0.0000 C   0  0  0  0  0  0  0  0  0  0  0  0
   -9.4249    0.4678    0.0000 C   0  0  0  0  0  0  0  0  0  0  0  0
  -10.9240    0.5202    0.0000 C   0  0  0  0  0  0  0  0  0  0  0  0
  -11.7189   -0.7519    0.0000 C   0  0  0  0  0  0  0  0  0  0  0  0
  -13.2180   -0.6996    0.0000 Cl  0  0  0  0  0  0  0  0  0  0  0  0
  -11.0147   -2.0763    0.0000 C   0  0  0  0  0  0  0  0  0  0  0  0
   -9.5156   -2.1287    0.0000 C   0  0  0  0  0  0  0  0  0  0  0  0
   -5.3120   -0.6406    0.0000 C   0  0  0  0  0  0  0  0  0  0  0  0
   -3.8855   -0.1771    0.0000 C   0  0  0  0  0  0  0  0  0  0  0  0
   -3.5736    1.2902    0.0000 N   0  0  0  0  0  0  0  0  0  0  0  0
   -2.1470    1.7537    0.0000 C   0  0  0  0  0  0  0  0  0  0  0  0
   -1.8351    3.2209    0.0000 C   0  0  0  0  0  0  0  0  0  0  0  0
   -0.4086    3.6844    0.0000 C   0  0  0  0  0  0  0  0  0  0  0  0
    0.7062    2.6807    0.0000 N   0  0  0  0  0  0  0  0  0  0  0  0
    0.3943    1.2135    0.0000 C   0  0  0  0  0  0  0  0  0  0  0  0
    1.2760    0.0000    0.0000 N   0  0  0  0  0  0  0  0  0  0  0  0
    0.3943   -1.2135    0.0000 N   0  0  0  0  0  0  0  0  0  0  0  0
   -1.0323   -0.7500    0.0000 C   0  0  0  0  0  0  0  0  0  0  0  0
   -1.0323    0.7500    0.0000 C   0  0  0  0  0  0  0  0  0  0  0  0
   -4.6883    2.2939    0.0000 C   0  0  0  0  0  0  0  0  0  0  0  0
   -6.1149    1.8303    0.0000 C   0  0  0  0  0  0  0  0  0  0  0  0
  1  2  1  0
  2  3  1  0
  3  4  1  0
  4  5  2  0
  5  6  1  0
  6  7  2  0
  7  8  1  0
  7  9  1  0
  9 10  2  0
  2 11  1  0
 11 12  1  0
 12 13  1  0
 13 14  1  0
 14 15  2  0
 15 16  1  0
 16 17  2  0
 17 18  1  0
 18 19  1  0
 19 20  1  0
 20 21  2  0
 21 22  1  0
 13 23  1  0
 23 24  1  0
 24  2  1  0
 10  4  1  0
 22 14  1  0
 22 18  2  0
M  END
>  <Compound_ID>  (78) 
CHEMBL598013

>  <Active>  (78) 
1

>  <Smiles>  (78) 
NC1(Cc2ccc(Cl)cc2)CCN(c2ccnc3[nH]ncc23)CC1

>  <canonical_smi>  (78) 
NC1(Cc2ccc(Cl)cc2)CCN(c2ccnc3[nH]ncc23)CC1

>  <Set>  (78) 
G2 active

>  <Set_type>  (78) 
Train

>  <MW>  (78) 
341.85

>  <HBD>  (78) 
2

>  <HBA>  (78) 
4

>  <NRB>  (78) 
3

>  <NR>  (78) 
4

>  <NAR>  (78) 
3

>  <PSA>  (78) 
70.83

>  <Standard Type>  (78) 
nan

>  <Standard Relation>  (78) 
nan

>  <Standard Units>  (78) 
nan

>  <Standard Value>  (78) 
nan

>  <Assay ChEMBL ID>  (78) 
nan

>  <Assay Description>  (78) 
nan

>  <BAO Label>  (78) 
nan

$$$$

     RDKit          2D

 43 49  0  0  0  0  0  0  0  0999 V2000
   -0.3410  -23.5122    0.0000 C   0  0  0  0  0  0  0  0  0  0  0  0
    0.8726  -22.6306    0.0000 O   0  0  0  0  0  0  0  0  0  0  0  0
    0.7158  -21.1388    0.0000 C   0  0  0  0  0  0  0  0  0  0  0  0
   -0.6546  -20.5287    0.0000 C   0  0  0  0  0  0  0  0  0  0  0  0
   -0.8113  -19.0369    0.0000 C   0  0  0  0  0  0  0  0  0  0  0  0
    0.4022  -18.1552    0.0000 C   0  0  0  0  0  0  0  0  0  0  0  0
    0.2454  -16.6634    0.0000 C   0  0  0  0  0  0  0  0  0  0  0  0
   -1.0537  -15.9134    0.0000 N   0  0  0  0  0  0  0  0  0  0  0  0
   -0.7418  -14.4462    0.0000 N   0  0  0  0  0  0  0  0  0  0  0  0
    0.7500  -14.2894    0.0000 C   0  0  0  0  0  0  0  0  0  0  0  0
    1.5000  -12.9904    0.0000 C   0  0  0  0  0  0  0  0  0  0  0  0
    3.0000  -12.9904    0.0000 C   0  0  0  0  0  0  0  0  0  0  0  0
    3.7500  -11.6913    0.0000 C   0  0  0  0  0  0  0  0  0  0  0  0
    3.0000  -10.3923    0.0000 N   0  0  0  0  0  0  0  0  0  0  0  0
    3.7500   -9.0933    0.0000 C   0  0  0  0  0  0  0  0  0  0  0  0
    3.0000   -7.7942    0.0000 C   0  0  0  0  0  0  0  0  0  0  0  0
    3.7500   -6.4952    0.0000 C   0  0  0  0  0  0  0  0  0  0  0  0
    3.0000   -5.1962    0.0000 C   0  0  0  0  0  0  0  0  0  0  0  0
    1.5000   -5.1962    0.0000 C   0  0  0  0  0  0  0  0  0  0  0  0
    0.7500   -3.8971    0.0000 C   0  0  0  0  0  0  0  0  0  0  0  0
    1.5000   -2.5981    0.0000 N   0  0  0  0  0  0  0  0  0  0  0  0
    0.7500   -1.2990    0.0000 C   0  0  0  0  0  0  0  0  0  0  0  0
    1.5000    0.0000    0.0000 C   0  0  0  0  0  0  0  0  0  0  0  0
    0.7500    1.2990    0.0000 C   0  0  0  0  0  0  0  0  0  0  0  0
   -0.7500    1.2990    0.0000 N   0  0  0  0  0  0  0  0  0  0  0  0
   -1.5000    0.0000    0.0000 C   0  0  0  0  0  0  0  0  0  0  0  0
   -3.0000    0.0000    0.0000 O   0  0  0  0  0  0  0  0  0  0  0  0
   -0.7500   -1.2990    0.0000 C   0  0  0  0  0  0  0  0  0  0  0  0
   -1.5000   -2.5981    0.0000 C   0  0  0  0  0  0  0  0  0  0  0  0
   -0.7500   -3.8971    0.0000 C   0  0  0  0  0  0  0  0  0  0  0  0
   -1.5000   -5.1962    0.0000 C   0  0  0  0  0  0  0  0  0  0  0  0
   -3.0000   -5.1962    0.0000 C   0  0  0  0  0  0  0  0  0  0  0  0
   -3.7500   -6.4952    0.0000 C   0  0  0  0  0  0  0  0  0  0  0  0
   -3.0000   -7.7942    0.0000 C   0  0  0  0  0  0  0  0  0  0  0  0
   -1.5000   -7.7942    0.0000 C   0  0  0  0  0  0  0  0  0  0  0  0
   -0.7500   -6.4952    0.0000 C   0  0  0  0  0  0  0  0  0  0  0  0
    0.7500   -6.4952    0.0000 C   0  0  0  0  0  0  0  0  0  0  0  0
    1.5000   -7.7942    0.0000 C   0  0  0  0  0  0  0  0  0  0  0  0
    1.5000  -10.3923    0.0000 C   0  0  0  0  0  0  0  0  0  0  0  0
    0.7500  -11.6913    0.0000 C   0  0  0  0  0  0  0  0  0  0  0  0
    1.3601  -15.6597    0.0000 N   0  0  0  0  0  0  0  0  0  0  0  0
    1.7725  -18.7653    0.0000 C   0  0  0  0  0  0  0  0  0  0  0  0
    1.9293  -20.2571    0.0000 N   0  0  0  0  0  0  0  0  0  0  0  0
  1  2  1  0
  2  3  1  0
  3  4  2  0
  4  5  1  0
  5  6  2  0
  6  7  1  0
  7  8  2  0
  8  9  1  0
  9 10  2  0
 10 11  1  0
 11 12  1  0
 12 13  1  0
 13 14  1  0
 14 15  1  0
 15 16  1  0
 16 17  2  0
 17 18  1  0
 18 19  2  0
 19 20  1  0
 20 21  2  0
 21 22  1  0
 22 23  1  0
 23 24  2  0
 24 25  1  0
 25 26  1  0
 26 27  2  0
 26 28  1  0
 28 29  1  0
 29 30  2  0
 30 31  1  0
 31 32  2  0
 32 33  1  0
 33 34  2  0
 34 35  1  0
 35 36  2  0
 19 37  1  0
 37 38  2  0
 14 39  1  0
 39 40  1  0
 10 41  1  0
  6 42  1  0
 42 43  2  0
 43  3  1  0
 41  7  1  0
 40 11  1  0
 38 16  1  0
 30 20  1  0
 36 31  1  0
 28 22  2  0
M  END
>  <Compound_ID>  (79) 
CHEMBL446966

>  <Active>  (79) 
1

>  <Smiles>  (79) 
COc1ccc(-c2nnc(C3CCN(Cc4ccc(-c5nc6cc[nH]c(=O)c6cc5-c5ccccc5)cc4)CC3)[nH]2)cn1

>  <canonical_smi>  (79) 
COc1ccc(-c2nnc(C3CCN(Cc4ccc(-c5nc6cc[nH]c(=O)c6cc5-c5ccccc5)cc4)CC3)[nH]2)cn1

>  <Set>  (79) 
G2 active

>  <Set_type>  (79) 
Train

>  <MW>  (79) 
569.67

>  <HBD>  (79) 
2

>  <HBA>  (79) 
7

>  <NRB>  (79) 
7

>  <NR>  (79) 
7

>  <NAR>  (79) 
6

>  <PSA>  (79) 
112.68

>  <Standard Type>  (79) 
nan

>  <Standard Relation>  (79) 
nan

>  <Standard Units>  (79) 
nan

>  <Standard Value>  (79) 
nan

>  <Assay ChEMBL ID>  (79) 
nan

>  <Assay Description>  (79) 
nan

>  <BAO Label>  (79) 
nan

$$$$

     RDKit          2D

 31 34  0  0  0  0  0  0  0  0999 V2000
    5.2500   -1.2990    0.0000 N   0  0  0  0  0  0  0  0  0  0  0  0
    3.7500   -1.2990    0.0000 C   0  0  0  0  0  0  0  0  0  0  0  0
    3.0000   -2.5981    0.0000 O   0  0  0  0  0  0  0  0  0  0  0  0
    3.0000    0.0000    0.0000 N   0  0  0  0  0  0  0  0  0  0  0  0
    1.5000    0.0000    0.0000 C   0  0  0  0  0  0  0  0  0  0  0  0
    0.7500   -1.2990    0.0000 C   0  0  0  0  0  0  0  0  0  0  0  0
   -0.7500   -1.2990    0.0000 C   0  0  0  0  0  0  0  0  0  0  0  0
   -1.5000    0.0000    0.0000 C   0  0  0  0  0  0  0  0  0  0  0  0
   -0.7500    1.2990    0.0000 C   0  0  0  0  0  0  0  0  0  0  0  0
    0.7500    1.2990    0.0000 C   0  0  0  0  0  0  0  0  0  0  0  0
   -1.7537    2.4138    0.0000 C   0  0  0  0  0  0  0  0  0  0  0  0
   -1.4418    3.8810    0.0000 C   0  0  0  0  0  0  0  0  0  0  0  0
   -2.5565    4.8847    0.0000 C   0  0  0  0  0  0  0  0  0  0  0  0
   -4.0238    4.5728    0.0000 C   0  0  0  0  0  0  0  0  0  0  0  0
   -4.7738    5.8718    0.0000 C   0  0  0  0  0  0  0  0  0  0  0  0
   -6.2655    6.0286    0.0000 C   0  0  0  0  0  0  0  0  0  0  0  0
   -7.1472    4.8151    0.0000 O   0  0  0  0  0  0  0  0  0  0  0  0
   -6.8757    7.3990    0.0000 N   0  0  0  0  0  0  0  0  0  0  0  0
   -8.3674    7.5557    0.0000 C   0  0  0  0  0  0  0  0  0  0  0  0
   -8.9775    8.9261    0.0000 C   0  0  0  0  0  0  0  0  0  0  0  0
  -10.4693    9.0829    0.0000 C   0  0  0  0  0  0  0  0  0  0  0  0
  -11.0794   10.4532    0.0000 C   0  0  0  0  0  0  0  0  0  0  0  0
  -12.5712   10.6100    0.0000 C   0  0  0  0  0  0  0  0  0  0  0  0
  -13.4529    9.3964    0.0000 N   0  0  0  0  0  0  0  0  0  0  0  0
  -12.8428    8.0261    0.0000 C   0  0  0  0  0  0  0  0  0  0  0  0
  -11.3510    7.8693    0.0000 C   0  0  0  0  0  0  0  0  0  0  0  0
   -3.7701    6.9866    0.0000 C   0  0  0  0  0  0  0  0  0  0  0  0
   -2.3998    6.3765    0.0000 N   0  0  0  0  0  0  0  0  0  0  0  0
   -3.1240    1.8037    0.0000 C   0  0  0  0  0  0  0  0  0  0  0  0
   -4.4231    2.5537    0.0000 O   0  0  0  0  0  0  0  0  0  0  0  0
   -2.9672    0.3119    0.0000 N   0  0  0  0  0  0  0  0  0  0  0  0
  1  2  1  0
  2  3  2  0
  2  4  1  0
  4  5  1  0
  5  6  2  0
  6  7  1  0
  7  8  2  0
  8  9  1  0
  9 10  2  0
  9 11  1  0
 11 12  2  0
 12 13  1  0
 13 14  2  0
 14 15  1  0
 15 16  1  0
 16 17  2  0
 16 18  1  0
 18 19  1  0
 19 20  1  0
 20 21  1  0
 21 22  2  0
 22 23  1  0
 23 24  2  0
 24 25  1  0
 25 26  2  0
 15 27  2  0
 27 28  1  0
 11 29  1  0
 29 30  2  0
 29 31  1  0
 10  5  1  0
 28 13  1  0
 31  8  1  0
 26 21  1  0
M  END
>  <Compound_ID>  (80) 
CHEMBL228750

>  <Active>  (80) 
1

>  <Smiles>  (80) 
NC(=O)Nc1ccc2c(c1)/C(=C/c1cc(C(=O)NCCc3ccncc3)c[nH]1)C(=O)N2

>  <canonical_smi>  (80) 
NC(=O)Nc1ccc2c(c1)/C(=C/c1cc(C(=O)NCCc3ccncc3)c[nH]1)C(=O)N2

>  <Set>  (80) 
G2 active

>  <Set_type>  (80) 
Train

>  <MW>  (80) 
416.44

>  <HBD>  (80) 
5

>  <HBA>  (80) 
4

>  <NRB>  (80) 
6

>  <NR>  (80) 
4

>  <NAR>  (80) 
3

>  <PSA>  (80) 
142.0

>  <Standard Type>  (80) 
nan

>  <Standard Relation>  (80) 
nan

>  <Standard Units>  (80) 
nan

>  <Standard Value>  (80) 
nan

>  <Assay ChEMBL ID>  (80) 
nan

>  <Assay Description>  (80) 
nan

>  <BAO Label>  (80) 
nan

$$$$

     RDKit          2D

 24 27  0  0  0  0  0  0  0  0999 V2000
   -8.0263    2.4104    0.0000 N   0  0  0  0  0  0  0  0  0  0  0  0
   -7.8175    0.9250    0.0000 C   0  0  0  0  0  0  0  0  0  0  0  0
   -6.4268    0.3631    0.0000 C   0  0  0  0  0  0  0  0  0  0  0  0
   -7.2216   -0.9090    0.0000 C   0  0  0  0  0  0  0  0  0  0  0  0
   -8.7207   -0.8566    0.0000 C   0  0  0  0  0  0  0  0  0  0  0  0
   -9.5156   -2.1287    0.0000 C   0  0  0  0  0  0  0  0  0  0  0  0
   -8.8114   -3.4531    0.0000 C   0  0  0  0  0  0  0  0  0  0  0  0
   -9.6063   -4.7252    0.0000 Cl  0  0  0  0  0  0  0  0  0  0  0  0
   -7.3123   -3.5054    0.0000 C   0  0  0  0  0  0  0  0  0  0  0  0
   -6.5174   -2.2334    0.0000 C   0  0  0  0  0  0  0  0  0  0  0  0
   -5.3120   -0.6406    0.0000 C   0  0  0  0  0  0  0  0  0  0  0  0
   -3.8855   -0.1771    0.0000 C   0  0  0  0  0  0  0  0  0  0  0  0
   -3.5736    1.2902    0.0000 N   0  0  0  0  0  0  0  0  0  0  0  0
   -2.1470    1.7537    0.0000 C   0  0  0  0  0  0  0  0  0  0  0  0
   -1.8351    3.2209    0.0000 C   0  0  0  0  0  0  0  0  0  0  0  0
   -0.4086    3.6844    0.0000 C   0  0  0  0  0  0  0  0  0  0  0  0
    0.7062    2.6807    0.0000 N   0  0  0  0  0  0  0  0  0  0  0  0
    0.3943    1.2135    0.0000 C   0  0  0  0  0  0  0  0  0  0  0  0
    1.2760    0.0000    0.0000 N   0  0  0  0  0  0  0  0  0  0  0  0
    0.3943   -1.2135    0.0000 C   0  0  0  0  0  0  0  0  0  0  0  0
   -1.0323   -0.7500    0.0000 C   0  0  0  0  0  0  0  0  0  0  0  0
   -1.0323    0.7500    0.0000 C   0  0  0  0  0  0  0  0  0  0  0  0
   -4.6883    2.2939    0.0000 C   0  0  0  0  0  0  0  0  0  0  0  0
   -6.1149    1.8303    0.0000 C   0  0  0  0  0  0  0  0  0  0  0  0
  1  2  1  0
  2  3  1  0
  3  4  1  0
  4  5  2  0
  5  6  1  0
  6  7  2  0
  7  8  1  0
  7  9  1  0
  9 10  2  0
  3 11  1  0
 11 12  1  0
 12 13  1  0
 13 14  1  0
 14 15  2  0
 15 16  1  0
 16 17  2  0
 17 18  1  0
 18 19  1  0
 19 20  1  0
 20 21  2  0
 21 22  1  0
 13 23  1  0
 23 24  1  0
 24  3  1  0
 10  4  1  0
 22 14  1  0
 22 18  2  0
M  END
>  <Compound_ID>  (81) 
CHEMBL260463

>  <Active>  (81) 
1

>  <Smiles>  (81) 
NCC1(c2ccc(Cl)cc2)CCN(c2ccnc3[nH]ccc23)CC1

>  <canonical_smi>  (81) 
NCC1(c2ccc(Cl)cc2)CCN(c2ccnc3[nH]ccc23)CC1

>  <Set>  (81) 
G2 active

>  <Set_type>  (81) 
Train

>  <MW>  (81) 
340.86

>  <HBD>  (81) 
2

>  <HBA>  (81) 
3

>  <NRB>  (81) 
3

>  <NR>  (81) 
4

>  <NAR>  (81) 
3

>  <PSA>  (81) 
57.94

>  <Standard Type>  (81) 
nan

>  <Standard Relation>  (81) 
nan

>  <Standard Units>  (81) 
nan

>  <Standard Value>  (81) 
nan

>  <Assay ChEMBL ID>  (81) 
nan

>  <Assay Description>  (81) 
nan

>  <BAO Label>  (81) 
nan

$$$$

     RDKit          2D

 42 48  0  0  0  0  0  0  0  0999 V2000
    3.7500   -1.2990    0.0000 C   0  0  0  0  0  0  0  0  0  0  0  0
    3.0000    0.0000    0.0000 S   0  0  0  0  0  0  0  0  0  0  0  0
    1.5000    0.0000    0.0000 C   0  0  0  0  0  0  0  0  0  0  0  0
    0.7500   -1.2990    0.0000 N   0  0  0  0  0  0  0  0  0  0  0  0
   -0.7500   -1.2990    0.0000 C   0  0  0  0  0  0  0  0  0  0  0  0
   -1.5000    0.0000    0.0000 C   0  0  0  0  0  0  0  0  0  0  0  0
   -3.0000    0.0000    0.0000 C   0  0  0  0  0  0  0  0  0  0  0  0
   -3.7500    1.2990    0.0000 C   0  0  0  0  0  0  0  0  0  0  0  0
   -5.2500    1.2990    0.0000 C   0  0  0  0  0  0  0  0  0  0  0  0
   -6.0000    2.5981    0.0000 C   0  0  0  0  0  0  0  0  0  0  0  0
   -7.5000    2.5981    0.0000 C   0  0  0  0  0  0  0  0  0  0  0  0
   -8.2500    1.2990    0.0000 C   0  0  0  0  0  0  0  0  0  0  0  0
   -7.5000    0.0000    0.0000 C   0  0  0  0  0  0  0  0  0  0  0  0
   -6.0000    0.0000    0.0000 C   0  0  0  0  0  0  0  0  0  0  0  0
   -3.0000    2.5981    0.0000 C   0  0  0  0  0  0  0  0  0  0  0  0
   -3.7500    3.8971    0.0000 C   0  0  0  0  0  0  0  0  0  0  0  0
   -3.0000    5.1962    0.0000 C   0  0  0  0  0  0  0  0  0  0  0  0
   -3.7500    6.4952    0.0000 C   0  0  0  0  0  0  0  0  0  0  0  0
   -5.2500    6.4952    0.0000 C   0  0  0  0  0  0  0  0  0  0  0  0
   -6.0000    7.7942    0.0000 C   0  0  0  0  0  0  0  0  0  0  0  0
   -5.2500    9.0933    0.0000 N   0  0  0  0  0  0  0  0  0  0  0  0
   -3.7500    9.0933    0.0000 C   0  0  0  0  0  0  0  0  0  0  0  0
   -3.0000   10.3923    0.0000 C   0  0  0  0  0  0  0  0  0  0  0  0
   -3.7500   11.6913    0.0000 C   0  0  0  0  0  0  0  0  0  0  0  0
   -3.0000   12.9904    0.0000 C   0  0  0  0  0  0  0  0  0  0  0  0
   -3.6101   14.3607    0.0000 N   0  0  0  0  0  0  0  0  0  0  0  0
   -2.4954   15.3644    0.0000 N   0  0  0  0  0  0  0  0  0  0  0  0
   -1.1963   14.6144    0.0000 C   0  0  0  0  0  0  0  0  0  0  0  0
    0.1740   15.2245    0.0000 C   0  0  0  0  0  0  0  0  0  0  0  0
    1.3875   14.3428    0.0000 C   0  0  0  0  0  0  0  0  0  0  0  0
    2.7578   14.9529    0.0000 C   0  0  0  0  0  0  0  0  0  0  0  0
    2.9146   16.4447    0.0000 C   0  0  0  0  0  0  0  0  0  0  0  0
    1.7011   17.3264    0.0000 C   0  0  0  0  0  0  0  0  0  0  0  0
    0.3308   16.7163    0.0000 N   0  0  0  0  0  0  0  0  0  0  0  0
   -1.5082   13.1472    0.0000 N   0  0  0  0  0  0  0  0  0  0  0  0
   -5.2500   11.6913    0.0000 C   0  0  0  0  0  0  0  0  0  0  0  0
   -6.0000   10.3923    0.0000 C   0  0  0  0  0  0  0  0  0  0  0  0
   -6.0000    5.1962    0.0000 C   0  0  0  0  0  0  0  0  0  0  0  0
   -5.2500    3.8971    0.0000 C   0  0  0  0  0  0  0  0  0  0  0  0
   -1.5000    2.5981    0.0000 N   0  0  0  0  0  0  0  0  0  0  0  0
   -0.7500    1.2990    0.0000 C   0  0  0  0  0  0  0  0  0  0  0  0
    0.7500    1.2990    0.0000 N   0  0  0  0  0  0  0  0  0  0  0  0
  1  2  1  0
  2  3  1  0
  3  4  2  0
  4  5  1  0
  5  6  2  0
  6  7  1  0
  7  8  2  0
  8  9  1  0
  9 10  2  0
 10 11  1  0
 11 12  2  0
 12 13  1  0
 13 14  2  0
  8 15  1  0
 15 16  1  0
 16 17  2  0
 17 18  1  0
 18 19  2  0
 19 20  1  0
 20 21  1  0
 21 22  1  0
 22 23  1  0
 23 24  1  0
 24 25  1  0
 25 26  2  0
 26 27  1  0
 27 28  2  0
 28 29  1  0
 29 30  2  0
 30 31  1  0
 31 32  2  0
 32 33  1  0
 33 34  2  0
 28 35  1  0
 24 36  1  0
 36 37  1  0
 19 38  1  0
 38 39  2  0
 15 40  2  0
 40 41  1  0
 41 42  2  0
 42  3  1  0
 41  6  1  0
 14  9  1  0
 39 16  1  0
 37 21  1  0
 35 25  1  0
 34 29  1  0
M  END
>  <Compound_ID>  (82) 
CHEMBL254099

>  <Active>  (82) 
1

>  <Smiles>  (82) 
CSc1ncc2cc(-c3ccccc3)c(-c3ccc(CN4CCC(c5nnc(-c6ccccn6)[nH]5)CC4)cc3)nc2n1

>  <canonical_smi>  (82) 
CSc1ncc2cc(-c3ccccc3)c(-c3ccc(CN4CCC(c5nnc(-c6ccccn6)[nH]5)CC4)cc3)nc2n1

>  <Set>  (82) 
G2 active

>  <Set_type>  (82) 
Train

>  <MW>  (82) 
570.73

>  <HBD>  (82) 
1

>  <HBA>  (82) 
8

>  <NRB>  (82) 
7

>  <NR>  (82) 
7

>  <NAR>  (82) 
6

>  <PSA>  (82) 
96.37

>  <Standard Type>  (82) 
nan

>  <Standard Relation>  (82) 
nan

>  <Standard Units>  (82) 
nan

>  <Standard Value>  (82) 
nan

>  <Assay ChEMBL ID>  (82) 
nan

>  <Assay Description>  (82) 
nan

>  <BAO Label>  (82) 
nan

$$$$

     RDKit          2D

 41 47  0  0  0  0  0  0  0  0999 V2000
    3.0000    0.0000    0.0000 O   0  0  0  0  0  0  0  0  0  0  0  0
    1.5000    0.0000    0.0000 C   0  0  0  0  0  0  0  0  0  0  0  0
    0.7500   -1.2990    0.0000 N   0  0  0  0  0  0  0  0  0  0  0  0
   -0.7500   -1.2990    0.0000 C   0  0  0  0  0  0  0  0  0  0  0  0
   -1.5000    0.0000    0.0000 C   0  0  0  0  0  0  0  0  0  0  0  0
   -0.7500    1.2990    0.0000 C   0  0  0  0  0  0  0  0  0  0  0  0
   -1.5000    2.5981    0.0000 N   0  0  0  0  0  0  0  0  0  0  0  0
   -0.7500    3.8971    0.0000 C   0  0  0  0  0  0  0  0  0  0  0  0
   -1.5000    5.1962    0.0000 C   0  0  0  0  0  0  0  0  0  0  0  0
   -0.7500    6.4952    0.0000 C   0  0  0  0  0  0  0  0  0  0  0  0
   -1.5000    7.7942    0.0000 C   0  0  0  0  0  0  0  0  0  0  0  0
   -3.0000    7.7942    0.0000 C   0  0  0  0  0  0  0  0  0  0  0  0
   -3.7500    9.0933    0.0000 C   0  0  0  0  0  0  0  0  0  0  0  0
   -3.0000   10.3923    0.0000 N   0  0  0  0  0  0  0  0  0  0  0  0
   -1.5000   10.3923    0.0000 C   0  0  0  0  0  0  0  0  0  0  0  0
   -0.7500   11.6913    0.0000 C   0  0  0  0  0  0  0  0  0  0  0  0
   -1.5000   12.9904    0.0000 C   0  0  0  0  0  0  0  0  0  0  0  0
   -0.7500   14.2894    0.0000 C   0  0  0  0  0  0  0  0  0  0  0  0
   -1.3601   15.6597    0.0000 N   0  0  0  0  0  0  0  0  0  0  0  0
   -0.2454   16.6634    0.0000 N   0  0  0  0  0  0  0  0  0  0  0  0
    1.0537   15.9134    0.0000 C   0  0  0  0  0  0  0  0  0  0  0  0
    2.4240   16.5235    0.0000 C   0  0  0  0  0  0  0  0  0  0  0  0
    3.6375   15.6419    0.0000 C   0  0  0  0  0  0  0  0  0  0  0  0
    5.0078   16.2520    0.0000 C   0  0  0  0  0  0  0  0  0  0  0  0
    5.1646   17.7437    0.0000 C   0  0  0  0  0  0  0  0  0  0  0  0
    3.9511   18.6254    0.0000 C   0  0  0  0  0  0  0  0  0  0  0  0
    2.5808   18.0153    0.0000 N   0  0  0  0  0  0  0  0  0  0  0  0
    0.7418   14.4462    0.0000 N   0  0  0  0  0  0  0  0  0  0  0  0
   -3.0000   12.9904    0.0000 C   0  0  0  0  0  0  0  0  0  0  0  0
   -3.7500   11.6913    0.0000 C   0  0  0  0  0  0  0  0  0  0  0  0
   -3.7500    6.4952    0.0000 C   0  0  0  0  0  0  0  0  0  0  0  0
   -3.0000    5.1962    0.0000 C   0  0  0  0  0  0  0  0  0  0  0  0
    0.7500    3.8971    0.0000 C   0  0  0  0  0  0  0  0  0  0  0  0
    1.5000    5.1962    0.0000 C   0  0  0  0  0  0  0  0  0  0  0  0
    3.0000    5.1962    0.0000 C   0  0  0  0  0  0  0  0  0  0  0  0
    3.7500    6.4952    0.0000 C   0  0  0  0  0  0  0  0  0  0  0  0
    3.0000    7.7942    0.0000 C   0  0  0  0  0  0  0  0  0  0  0  0
    1.5000    7.7942    0.0000 C   0  0  0  0  0  0  0  0  0  0  0  0
    0.7500    6.4952    0.0000 C   0  0  0  0  0  0  0  0  0  0  0  0
    1.5000    2.5981    0.0000 C   0  0  0  0  0  0  0  0  0  0  0  0
    0.7500    1.2990    0.0000 C   0  0  0  0  0  0  0  0  0  0  0  0
  1  2  2  0
  2  3  1  0
  3  4  1  0
  4  5  1  0
  5  6  1  0
  6  7  2  0
  7  8  1  0
  8  9  1  0
  9 10  2  0
 10 11  1  0
 11 12  2  0
 12 13  1  0
 13 14  1  0
 14 15  1  0
 15 16  1  0
 16 17  1  0
 17 18  1  0
 18 19  2  0
 19 20  1  0
 20 21  2  0
 21 22  1  0
 22 23  2  0
 23 24  1  0
 24 25  2  0
 25 26  1  0
 26 27  2  0
 21 28  1  0
 17 29  1  0
 29 30  1  0
 12 31  1  0
 31 32  2  0
  8 33  2  0
 33 34  1  0
 34 35  2  0
 35 36  1  0
 36 37  2  0
 37 38  1  0
 38 39  2  0
 33 40  1  0
 40 41  2  0
 41  2  1  0
 41  6  1  0
 32  9  1  0
 39 34  1  0
 30 14  1  0
 28 18  1  0
 27 22  1  0
M  END
>  <Compound_ID>  (83) 
CHEMBL446134

>  <Active>  (83) 
1

>  <Smiles>  (83) 
O=C1NCCc2nc(-c3ccc(CN4CCC(c5nnc(-c6ccccn6)[nH]5)CC4)cc3)c(-c3ccccc3)cc21

>  <canonical_smi>  (83) 
O=C1NCCc2nc(-c3ccc(CN4CCC(c5nnc(-c6ccccn6)[nH]5)CC4)cc3)c(-c3ccccc3)cc21

>  <Set>  (83) 
G2 active

>  <Set_type>  (83) 
Train

>  <MW>  (83) 
541.66

>  <HBD>  (83) 
2

>  <HBA>  (83) 
6

>  <NRB>  (83) 
6

>  <NR>  (83) 
7

>  <NAR>  (83) 
5

>  <PSA>  (83) 
99.69

>  <Standard Type>  (83) 
nan

>  <Standard Relation>  (83) 
nan

>  <Standard Units>  (83) 
nan

>  <Standard Value>  (83) 
nan

>  <Assay ChEMBL ID>  (83) 
nan

>  <Assay Description>  (83) 
nan

>  <BAO Label>  (83) 
nan

$$$$

     RDKit          2D

 28 31  0  0  0  0  0  0  0  0999 V2000
   -9.0638   -4.9905    0.0000 N   0  0  0  0  0  0  0  0  0  0  0  0
   -8.1821   -3.7770    0.0000 C   0  0  0  0  0  0  0  0  0  0  0  0
   -8.7923   -2.4067    0.0000 C   0  0  0  0  0  0  0  0  0  0  0  0
  -10.2840   -2.2499    0.0000 C   0  0  0  0  0  0  0  0  0  0  0  0
  -11.1657   -3.4634    0.0000 C   0  0  0  0  0  0  0  0  0  0  0  0
  -12.6575   -3.3066    0.0000 C   0  0  0  0  0  0  0  0  0  0  0  0
  -13.5392   -4.5201    0.0000 C   0  0  0  0  0  0  0  0  0  0  0  0
  -12.9291   -5.8905    0.0000 N   0  0  0  0  0  0  0  0  0  0  0  0
  -11.4373   -6.0472    0.0000 C   0  0  0  0  0  0  0  0  0  0  0  0
  -10.5556   -4.8337    0.0000 C   0  0  0  0  0  0  0  0  0  0  0  0
   -7.9106   -1.1931    0.0000 N   0  0  0  0  0  0  0  0  0  0  0  0
   -6.4188   -1.3499    0.0000 C   0  0  0  0  0  0  0  0  0  0  0  0
   -5.8087   -2.7203    0.0000 O   0  0  0  0  0  0  0  0  0  0  0  0
   -5.5371   -0.1364    0.0000 C   0  0  0  0  0  0  0  0  0  0  0  0
   -6.0006    1.2902    0.0000 C   0  0  0  0  0  0  0  0  0  0  0  0
   -4.7871    2.1718    0.0000 C   0  0  0  0  0  0  0  0  0  0  0  0
   -4.7871    3.6718    0.0000 Br  0  0  0  0  0  0  0  0  0  0  0  0
   -3.5736    1.2902    0.0000 C   0  0  0  0  0  0  0  0  0  0  0  0
   -2.1470    1.7537    0.0000 C   0  0  0  0  0  0  0  0  0  0  0  0
   -1.8351    3.2209    0.0000 C   0  0  0  0  0  0  0  0  0  0  0  0
   -0.4086    3.6844    0.0000 C   0  0  0  0  0  0  0  0  0  0  0  0
    0.7062    2.6807    0.0000 N   0  0  0  0  0  0  0  0  0  0  0  0
    0.3943    1.2135    0.0000 C   0  0  0  0  0  0  0  0  0  0  0  0
    1.2760    0.0000    0.0000 N   0  0  0  0  0  0  0  0  0  0  0  0
    0.3943   -1.2135    0.0000 C   0  0  0  0  0  0  0  0  0  0  0  0
   -1.0323   -0.7500    0.0000 C   0  0  0  0  0  0  0  0  0  0  0  0
   -1.0323    0.7500    0.0000 C   0  0  0  0  0  0  0  0  0  0  0  0
   -4.0371   -0.1364    0.0000 S   0  0  0  0  0  0  0  0  0  0  0  0
  1  2  1  0
  3  2  1  6
  3  4  1  0
  4  5  1  0
  5  6  2  0
  6  7  1  0
  7  8  2  0
  8  9  1  0
  9 10  2  0
  3 11  1  0
 11 12  1  0
 12 13  2  0
 12 14  1  0
 14 15  2  0
 15 16  1  0
 16 17  1  0
 16 18  2  0
 18 19  1  0
 19 20  2  0
 20 21  1  0
 21 22  2  0
 22 23  1  0
 23 24  1  0
 24 25  1  0
 25 26  2  0
 26 27  1  0
 18 28  1  0
 10  5  1  0
 28 14  1  0
 27 19  1  0
 27 23  2  0
M  END
>  <Compound_ID>  (84) 
CHEMBL498051

>  <Active>  (84) 
1

>  <Smiles>  (84) 
NC[C@H](Cc1ccncc1)NC(=O)c1cc(Br)c(-c2ccnc3[nH]ccc23)s1

>  <canonical_smi>  (84) 
NC[C@H](Cc1ccncc1)NC(=O)c1cc(Br)c(-c2ccnc3[nH]ccc23)s1

>  <Set>  (84) 
G2 active

>  <Set_type>  (84) 
Train

>  <MW>  (84) 
456.37

>  <HBD>  (84) 
3

>  <HBA>  (84) 
4

>  <NRB>  (84) 
6

>  <NR>  (84) 
4

>  <NAR>  (84) 
4

>  <PSA>  (84) 
96.69

>  <Standard Type>  (84) 
nan

>  <Standard Relation>  (84) 
nan

>  <Standard Units>  (84) 
nan

>  <Standard Value>  (84) 
nan

>  <Assay ChEMBL ID>  (84) 
nan

>  <Assay Description>  (84) 
nan

>  <BAO Label>  (84) 
nan

$$$$

     RDKit          2D

 41 47  0  0  0  0  0  0  0  0999 V2000
    3.7500   -1.2990    0.0000 C   0  0  0  0  0  0  0  0  0  0  0  0
    3.0000    0.0000    0.0000 S   0  0  0  0  0  0  0  0  0  0  0  0
    1.5000    0.0000    0.0000 C   0  0  0  0  0  0  0  0  0  0  0  0
    0.7500   -1.2990    0.0000 N   0  0  0  0  0  0  0  0  0  0  0  0
   -0.7500   -1.2990    0.0000 C   0  0  0  0  0  0  0  0  0  0  0  0
   -1.5000    0.0000    0.0000 C   0  0  0  0  0  0  0  0  0  0  0  0
   -3.0000    0.0000    0.0000 C   0  0  0  0  0  0  0  0  0  0  0  0
   -3.7500    1.2990    0.0000 C   0  0  0  0  0  0  0  0  0  0  0  0
   -5.2500    1.2990    0.0000 C   0  0  0  0  0  0  0  0  0  0  0  0
   -6.0000    2.5981    0.0000 C   0  0  0  0  0  0  0  0  0  0  0  0
   -7.5000    2.5981    0.0000 C   0  0  0  0  0  0  0  0  0  0  0  0
   -8.2500    1.2990    0.0000 C   0  0  0  0  0  0  0  0  0  0  0  0
   -7.5000    0.0000    0.0000 C   0  0  0  0  0  0  0  0  0  0  0  0
   -6.0000    0.0000    0.0000 C   0  0  0  0  0  0  0  0  0  0  0  0
   -3.0000    2.5981    0.0000 C   0  0  0  0  0  0  0  0  0  0  0  0
   -3.7500    3.8971    0.0000 C   0  0  0  0  0  0  0  0  0  0  0  0
   -3.0000    5.1962    0.0000 C   0  0  0  0  0  0  0  0  0  0  0  0
   -3.7500    6.4952    0.0000 C   0  0  0  0  0  0  0  0  0  0  0  0
   -5.2500    6.4952    0.0000 C   0  0  0  0  0  0  0  0  0  0  0  0
   -6.0000    7.7942    0.0000 C   0  0  0  0  0  0  0  0  0  0  0  0
   -5.2500    9.0933    0.0000 N   0  0  0  0  0  0  0  0  0  0  0  0
   -3.7500    9.0933    0.0000 C   0  0  0  0  0  0  0  0  0  0  0  0
   -3.0000   10.3923    0.0000 C   0  0  0  0  0  0  0  0  0  0  0  0
   -3.7500   11.6913    0.0000 C   0  0  0  0  0  0  0  0  0  0  0  0
   -3.0000   12.9904    0.0000 N   0  0  0  0  0  0  0  0  0  0  0  0
   -1.5082   13.1472    0.0000 N   0  0  0  0  0  0  0  0  0  0  0  0
   -1.1963   14.6144    0.0000 C   0  0  0  0  0  0  0  0  0  0  0  0
   -2.4954   15.3644    0.0000 C   0  0  0  0  0  0  0  0  0  0  0  0
   -2.8073   16.8316    0.0000 C   0  0  0  0  0  0  0  0  0  0  0  0
   -1.6925   17.8353    0.0000 N   0  0  0  0  0  0  0  0  0  0  0  0
   -4.2338   17.2951    0.0000 N   0  0  0  0  0  0  0  0  0  0  0  0
   -5.3486   16.2914    0.0000 C   0  0  0  0  0  0  0  0  0  0  0  0
   -5.0367   14.8242    0.0000 N   0  0  0  0  0  0  0  0  0  0  0  0
   -3.6101   14.3607    0.0000 C   0  0  0  0  0  0  0  0  0  0  0  0
   -5.2500   11.6913    0.0000 C   0  0  0  0  0  0  0  0  0  0  0  0
   -6.0000   10.3923    0.0000 C   0  0  0  0  0  0  0  0  0  0  0  0
   -6.0000    5.1962    0.0000 C   0  0  0  0  0  0  0  0  0  0  0  0
   -5.2500    3.8971    0.0000 C   0  0  0  0  0  0  0  0  0  0  0  0
   -1.5000    2.5981    0.0000 N   0  0  0  0  0  0  0  0  0  0  0  0
   -0.7500    1.2990    0.0000 C   0  0  0  0  0  0  0  0  0  0  0  0
    0.7500    1.2990    0.0000 N   0  0  0  0  0  0  0  0  0  0  0  0
  1  2  1  0
  2  3  1  0
  3  4  2  0
  4  5  1  0
  5  6  2  0
  6  7  1  0
  7  8  2  0
  8  9  1  0
  9 10  2  0
 10 11  1  0
 11 12  2  0
 12 13  1  0
 13 14  2  0
  8 15  1  0
 15 16  1  0
 16 17  2  0
 17 18  1  0
 18 19  2  0
 19 20  1  0
 20 21  1  0
 21 22  1  0
 22 23  1  0
 23 24  1  0
 24 25  1  0
 25 26  1  0
 26 27  2  0
 27 28  1  0
 28 29  2  0
 29 30  1  0
 29 31  1  0
 31 32  2  0
 32 33  1  0
 33 34  2  0
 24 35  1  0
 35 36  1  0
 19 37  1  0
 37 38  2  0
 15 39  2  0
 39 40  1  0
 40 41  2  0
 41  3  1  0
 40  6  1  0
 14  9  1  0
 38 16  1  0
 36 21  1  0
 34 25  1  0
 34 28  1  0
M  END
>  <Compound_ID>  (85) 
CHEMBL253693

>  <Active>  (85) 
1

>  <Smiles>  (85) 
CSc1ncc2cc(-c3ccccc3)c(-c3ccc(CN4CCC(n5ncc6c(N)ncnc65)CC4)cc3)nc2n1

>  <canonical_smi>  (85) 
CSc1ncc2cc(-c3ccccc3)c(-c3ccc(CN4CCC(n5ncc6c(N)ncnc65)CC4)cc3)nc2n1

>  <Set>  (85) 
G2 active

>  <Set_type>  (85) 
Train

>  <MW>  (85) 
559.7

>  <HBD>  (85) 
1

>  <HBA>  (85) 
9

>  <NRB>  (85) 
6

>  <NR>  (85) 
7

>  <NAR>  (85) 
6

>  <PSA>  (85) 
111.53

>  <Standard Type>  (85) 
nan

>  <Standard Relation>  (85) 
nan

>  <Standard Units>  (85) 
nan

>  <Standard Value>  (85) 
nan

>  <Assay ChEMBL ID>  (85) 
nan

>  <Assay Description>  (85) 
nan

>  <BAO Label>  (85) 
nan

$$$$

     RDKit          2D

 27 30  0  0  0  0  0  0  0  0999 V2000
   -7.8175    0.9250    0.0000 N   0  0  0  0  0  0  0  0  0  0  0  0
   -6.4268    0.3631    0.0000 C   0  0  0  0  0  0  0  0  0  0  0  0
   -7.2216   -0.9090    0.0000 C   0  0  0  0  0  0  0  0  0  0  0  0
   -8.7207   -0.8566    0.0000 N   0  0  0  0  0  0  0  0  0  0  0  0
   -9.5156   -2.1287    0.0000 C   0  0  0  0  0  0  0  0  0  0  0  0
   -8.8114   -3.4531    0.0000 O   0  0  0  0  0  0  0  0  0  0  0  0
  -11.0147   -2.0763    0.0000 C   0  0  0  0  0  0  0  0  0  0  0  0
  -11.7189   -0.7519    0.0000 C   0  0  0  0  0  0  0  0  0  0  0  0
  -13.2180   -0.6996    0.0000 C   0  0  0  0  0  0  0  0  0  0  0  0
  -14.0129   -1.9716    0.0000 C   0  0  0  0  0  0  0  0  0  0  0  0
  -15.5119   -1.9193    0.0000 Cl  0  0  0  0  0  0  0  0  0  0  0  0
  -13.3087   -3.2960    0.0000 C   0  0  0  0  0  0  0  0  0  0  0  0
  -11.8096   -3.3484    0.0000 C   0  0  0  0  0  0  0  0  0  0  0  0
   -5.3120   -0.6406    0.0000 C   0  0  0  0  0  0  0  0  0  0  0  0
   -3.8855   -0.1771    0.0000 C   0  0  0  0  0  0  0  0  0  0  0  0
   -3.5736    1.2902    0.0000 N   0  0  0  0  0  0  0  0  0  0  0  0
   -2.1470    1.7537    0.0000 C   0  0  0  0  0  0  0  0  0  0  0  0
   -1.8351    3.2209    0.0000 N   0  0  0  0  0  0  0  0  0  0  0  0
   -0.4086    3.6844    0.0000 C   0  0  0  0  0  0  0  0  0  0  0  0
    0.7062    2.6807    0.0000 N   0  0  0  0  0  0  0  0  0  0  0  0
    0.3943    1.2135    0.0000 C   0  0  0  0  0  0  0  0  0  0  0  0
    1.2760    0.0000    0.0000 N   0  0  0  0  0  0  0  0  0  0  0  0
    0.3943   -1.2135    0.0000 C   0  0  0  0  0  0  0  0  0  0  0  0
   -1.0323   -0.7500    0.0000 C   0  0  0  0  0  0  0  0  0  0  0  0
   -1.0323    0.7500    0.0000 C   0  0  0  0  0  0  0  0  0  0  0  0
   -4.6883    2.2939    0.0000 C   0  0  0  0  0  0  0  0  0  0  0  0
   -6.1149    1.8303    0.0000 C   0  0  0  0  0  0  0  0  0  0  0  0
  1  2  1  0
  2  3  1  0
  3  4  1  0
  4  5  1  0
  5  6  2  0
  5  7  1  0
  7  8  2  0
  8  9  1  0
  9 10  2  0
 10 11  1  0
 10 12  1  0
 12 13  2  0
  2 14  1  0
 14 15  1  0
 15 16  1  0
 16 17  1  0
 17 18  2  0
 18 19  1  0
 19 20  2  0
 20 21  1  0
 21 22  1  0
 22 23  1  0
 23 24  2  0
 24 25  1  0
 16 26  1  0
 26 27  1  0
 27  2  1  0
 13  7  1  0
 25 17  1  0
 25 21  2  0
M  END
>  <Compound_ID>  (86) 
CHEMBL603244

>  <Active>  (86) 
1

>  <Smiles>  (86) 
NC1(CNC(=O)c2ccc(Cl)cc2)CCN(c2ncnc3[nH]ccc23)CC1

>  <canonical_smi>  (86) 
NC1(CNC(=O)c2ccc(Cl)cc2)CCN(c2ncnc3[nH]ccc23)CC1

>  <Set>  (86) 
G2 active

>  <Set_type>  (86) 
Train

>  <MW>  (86) 
384.87

>  <HBD>  (86) 
3

>  <HBA>  (86) 
5

>  <NRB>  (86) 
4

>  <NR>  (86) 
4

>  <NAR>  (86) 
3

>  <PSA>  (86) 
99.93

>  <Standard Type>  (86) 
nan

>  <Standard Relation>  (86) 
nan

>  <Standard Units>  (86) 
nan

>  <Standard Value>  (86) 
nan

>  <Assay ChEMBL ID>  (86) 
nan

>  <Assay Description>  (86) 
nan

>  <BAO Label>  (86) 
nan

$$$$

     RDKit          2D

 40 46  0  0  0  0  0  0  0  0999 V2000
    3.0000   -7.7942    0.0000 C   0  0  0  0  0  0  0  0  0  0  0  0
    1.5000   -7.7942    0.0000 C   0  0  0  0  0  0  0  0  0  0  0  0
    0.7500   -6.4952    0.0000 C   0  0  0  0  0  0  0  0  0  0  0  0
    1.5000   -5.1962    0.0000 C   0  0  0  0  0  0  0  0  0  0  0  0
    0.7500   -3.8971    0.0000 C   0  0  0  0  0  0  0  0  0  0  0  0
    1.5000   -2.5981    0.0000 C   0  0  0  0  0  0  0  0  0  0  0  0
    0.7500   -1.2990    0.0000 C   0  0  0  0  0  0  0  0  0  0  0  0
    1.5000    0.0000    0.0000 N   0  0  0  0  0  0  0  0  0  0  0  0
    0.7500    1.2990    0.0000 C   0  0  0  0  0  0  0  0  0  0  0  0
   -0.7500    1.2990    0.0000 C   0  0  0  0  0  0  0  0  0  0  0  0
   -1.5000    0.0000    0.0000 C   0  0  0  0  0  0  0  0  0  0  0  0
   -0.7500   -1.2990    0.0000 C   0  0  0  0  0  0  0  0  0  0  0  0
   -1.5000   -2.5981    0.0000 N   0  0  0  0  0  0  0  0  0  0  0  0
   -0.7500   -3.8971    0.0000 C   0  0  0  0  0  0  0  0  0  0  0  0
   -1.5000   -5.1962    0.0000 C   0  0  0  0  0  0  0  0  0  0  0  0
   -3.0000   -5.1962    0.0000 C   0  0  0  0  0  0  0  0  0  0  0  0
   -3.7500   -6.4952    0.0000 C   0  0  0  0  0  0  0  0  0  0  0  0
   -3.0000   -7.7942    0.0000 C   0  0  0  0  0  0  0  0  0  0  0  0
   -3.7500   -9.0933    0.0000 C   0  0  0  0  0  0  0  0  0  0  0  0
   -5.2500   -9.0933    0.0000 N   0  0  0  0  0  0  0  0  0  0  0  0
   -6.0000   -7.7942    0.0000 C   0  0  0  0  0  0  0  0  0  0  0  0
   -7.5000   -7.7942    0.0000 C   0  0  0  0  0  0  0  0  0  0  0  0
   -8.2500   -9.0933    0.0000 C   0  0  0  0  0  0  0  0  0  0  0  0
   -9.7500   -9.0933    0.0000 C   0  0  0  0  0  0  0  0  0  0  0  0
  -10.6317  -10.3068    0.0000 N   0  0  0  0  0  0  0  0  0  0  0  0
  -12.0583   -9.8433    0.0000 N   0  0  0  0  0  0  0  0  0  0  0  0
  -12.0583   -8.3433    0.0000 C   0  0  0  0  0  0  0  0  0  0  0  0
  -13.2718   -7.4616    0.0000 C   0  0  0  0  0  0  0  0  0  0  0  0
  -13.1150   -5.9698    0.0000 C   0  0  0  0  0  0  0  0  0  0  0  0
  -14.3285   -5.0881    0.0000 C   0  0  0  0  0  0  0  0  0  0  0  0
  -15.6988   -5.6982    0.0000 C   0  0  0  0  0  0  0  0  0  0  0  0
  -15.8556   -7.1900    0.0000 C   0  0  0  0  0  0  0  0  0  0  0  0
  -14.6421   -8.0717    0.0000 N   0  0  0  0  0  0  0  0  0  0  0  0
  -10.6317   -7.8797    0.0000 N   0  0  0  0  0  0  0  0  0  0  0  0
   -7.5000  -10.3923    0.0000 C   0  0  0  0  0  0  0  0  0  0  0  0
   -6.0000  -10.3923    0.0000 C   0  0  0  0  0  0  0  0  0  0  0  0
   -1.5000   -7.7942    0.0000 C   0  0  0  0  0  0  0  0  0  0  0  0
   -0.7500   -6.4952    0.0000 C   0  0  0  0  0  0  0  0  0  0  0  0
    3.0000   -5.1962    0.0000 C   0  0  0  0  0  0  0  0  0  0  0  0
    3.7500   -6.4952    0.0000 C   0  0  0  0  0  0  0  0  0  0  0  0
  1  2  2  0
  2  3  1  0
  3  4  2  0
  4  5  1  0
  5  6  2  0
  6  7  1  0
  7  8  2  0
  8  9  1  0
  9 10  2  0
 10 11  1  0
 11 12  2  0
 12 13  1  0
 13 14  2  0
 14 15  1  0
 15 16  2  0
 16 17  1  0
 17 18  2  0
 18 19  1  0
 19 20  1  0
 20 21  1  0
 21 22  1  0
 22 23  1  0
 23 24  1  0
 24 25  2  0
 25 26  1  0
 26 27  1  0
 27 28  1  0
 28 29  2  0
 29 30  1  0
 30 31  2  0
 31 32  1  0
 32 33  2  0
 27 34  2  0
 23 35  1  0
 35 36  1  0
 18 37  1  0
 37 38  2  0
  4 39  1  0
 39 40  2  0
 40  1  1  0
 14  5  1  0
 38 15  1  0
 12  7  1  0
 36 20  1  0
 34 24  1  0
 33 28  1  0
M  END
>  <Compound_ID>  (87) 
CHEMBL259753

>  <Active>  (87) 
1

>  <Smiles>  (87) 
c1ccc(-c2cc3ncccc3nc2-c2ccc(CN3CCC(c4n[nH]c(-c5ccccn5)n4)CC3)cc2)cc1

>  <canonical_smi>  (87) 
c1ccc(-c2cc3ncccc3nc2-c2ccc(CN3CCC(c4n[nH]c(-c5ccccn5)n4)CC3)cc2)cc1

>  <Set>  (87) 
G2 active

>  <Set_type>  (87) 
Train

>  <MW>  (87) 
523.64

>  <HBD>  (87) 
1

>  <HBA>  (87) 
6

>  <NRB>  (87) 
6

>  <NR>  (87) 
7

>  <NAR>  (87) 
6

>  <PSA>  (87) 
83.48

>  <Standard Type>  (87) 
nan

>  <Standard Relation>  (87) 
nan

>  <Standard Units>  (87) 
nan

>  <Standard Value>  (87) 
nan

>  <Assay ChEMBL ID>  (87) 
nan

>  <Assay Description>  (87) 
nan

>  <BAO Label>  (87) 
nan

$$$$

     RDKit          2D

 37 41  0  0  0  0  0  0  0  0999 V2000
    3.7500   -1.2990    0.0000 C   0  0  0  0  0  0  0  0  0  0  0  0
    3.0000    0.0000    0.0000 S   0  0  0  0  0  0  0  0  0  0  0  0
    1.5000    0.0000    0.0000 C   0  0  0  0  0  0  0  0  0  0  0  0
    0.7500   -1.2990    0.0000 N   0  0  0  0  0  0  0  0  0  0  0  0
   -0.7500   -1.2990    0.0000 C   0  0  0  0  0  0  0  0  0  0  0  0
   -1.5000    0.0000    0.0000 C   0  0  0  0  0  0  0  0  0  0  0  0
   -3.0000    0.0000    0.0000 C   0  0  0  0  0  0  0  0  0  0  0  0
   -3.7500    1.2990    0.0000 C   0  0  0  0  0  0  0  0  0  0  0  0
   -5.2500    1.2990    0.0000 C   0  0  0  0  0  0  0  0  0  0  0  0
   -6.0000    2.5981    0.0000 C   0  0  0  0  0  0  0  0  0  0  0  0
   -7.5000    2.5981    0.0000 C   0  0  0  0  0  0  0  0  0  0  0  0
   -8.2500    1.2990    0.0000 C   0  0  0  0  0  0  0  0  0  0  0  0
   -7.5000    0.0000    0.0000 C   0  0  0  0  0  0  0  0  0  0  0  0
   -6.0000    0.0000    0.0000 C   0  0  0  0  0  0  0  0  0  0  0  0
   -3.0000    2.5981    0.0000 C   0  0  0  0  0  0  0  0  0  0  0  0
   -3.7500    3.8971    0.0000 C   0  0  0  0  0  0  0  0  0  0  0  0
   -3.0000    5.1962    0.0000 C   0  0  0  0  0  0  0  0  0  0  0  0
   -3.7500    6.4952    0.0000 C   0  0  0  0  0  0  0  0  0  0  0  0
   -5.2500    6.4952    0.0000 C   0  0  0  0  0  0  0  0  0  0  0  0
   -6.0000    7.7942    0.0000 C   0  0  0  0  0  0  0  0  0  0  0  0
   -5.2500    9.0933    0.0000 N   0  0  0  0  0  0  0  0  0  0  0  0
   -6.0000   10.3923    0.0000 C   0  0  0  0  0  0  0  0  0  0  0  0
   -5.2500   11.6913    0.0000 C   0  0  0  0  0  0  0  0  0  0  0  0
   -6.0000   12.9904    0.0000 C   0  0  0  0  0  0  0  0  0  0  0  0
   -7.5000   12.9904    0.0000 O   0  0  0  0  0  0  0  0  0  0  0  0
   -5.2500   14.2894    0.0000 C   0  0  0  0  0  0  0  0  0  0  0  0
   -3.7500   14.2894    0.0000 C   0  0  0  0  0  0  0  0  0  0  0  0
   -3.0000   15.5885    0.0000 C   0  0  0  0  0  0  0  0  0  0  0  0
   -3.7500   16.8875    0.0000 C   0  0  0  0  0  0  0  0  0  0  0  0
   -5.2500   16.8875    0.0000 C   0  0  0  0  0  0  0  0  0  0  0  0
   -6.0000   15.5885    0.0000 C   0  0  0  0  0  0  0  0  0  0  0  0
   -7.5000   15.5885    0.0000 N   0  0  0  0  0  0  0  0  0  0  0  0
   -6.0000    5.1962    0.0000 C   0  0  0  0  0  0  0  0  0  0  0  0
   -5.2500    3.8971    0.0000 C   0  0  0  0  0  0  0  0  0  0  0  0
   -1.5000    2.5981    0.0000 N   0  0  0  0  0  0  0  0  0  0  0  0
   -0.7500    1.2990    0.0000 C   0  0  0  0  0  0  0  0  0  0  0  0
    0.7500    1.2990    0.0000 N   0  0  0  0  0  0  0  0  0  0  0  0
  1  2  1  0
  2  3  1  0
  3  4  2  0
  4  5  1  0
  5  6  2  0
  6  7  1  0
  7  8  2  0
  8  9  1  0
  9 10  2  0
 10 11  1  0
 11 12  2  0
 12 13  1  0
 13 14  2  0
  8 15  1  0
 15 16  1  0
 16 17  2  0
 17 18  1  0
 18 19  2  0
 19 20  1  0
 20 21  1  0
 21 22  1  0
 22 23  1  0
 23 24  1  0
 24 25  2  0
 24 26  1  0
 26 27  2  0
 27 28  1  0
 28 29  2  0
 29 30  1  0
 30 31  2  0
 31 32  1  0
 19 33  1  0
 33 34  2  0
 15 35  2  0
 35 36  1  0
 36 37  2  0
 37  3  1  0
 36  6  1  0
 14  9  1  0
 34 16  1  0
 31 26  1  0
M  END
>  <Compound_ID>  (88) 
CHEMBL252456

>  <Active>  (88) 
1

>  <Smiles>  (88) 
CSc1ncc2cc(-c3ccccc3)c(-c3ccc(CNCCC(=O)c4ccccc4N)cc3)nc2n1

>  <canonical_smi>  (88) 
CSc1ncc2cc(-c3ccccc3)c(-c3ccc(CNCCC(=O)c4ccccc4N)cc3)nc2n1

>  <Set>  (88) 
G2 active

>  <Set_type>  (88) 
Train

>  <MW>  (88) 
505.65

>  <HBD>  (88) 
2

>  <HBA>  (88) 
7

>  <NRB>  (88) 
9

>  <NR>  (88) 
5

>  <NAR>  (88) 
5

>  <PSA>  (88) 
93.79

>  <Standard Type>  (88) 
nan

>  <Standard Relation>  (88) 
nan

>  <Standard Units>  (88) 
nan

>  <Standard Value>  (88) 
nan

>  <Assay ChEMBL ID>  (88) 
nan

>  <Assay Description>  (88) 
nan

>  <BAO Label>  (88) 
nan

$$$$

     RDKit          2D

 44 51  0  0  0  0  0  0  0  0999 V2000
   -1.7455  -13.3315    0.0000 O   0  0  0  0  0  0  0  0  0  0  0  0
   -0.7418  -14.4462    0.0000 C   0  0  0  0  0  0  0  0  0  0  0  0
   -1.0537  -15.9134    0.0000 N   0  0  0  0  0  0  0  0  0  0  0  0
    0.2454  -16.6634    0.0000 C   0  0  0  0  0  0  0  0  0  0  0  0
    0.5573  -18.1307    0.0000 C   0  0  0  0  0  0  0  0  0  0  0  0
    1.9838  -18.5942    0.0000 C   0  0  0  0  0  0  0  0  0  0  0  0
    3.0986  -17.5905    0.0000 C   0  0  0  0  0  0  0  0  0  0  0  0
    2.7867  -16.1233    0.0000 C   0  0  0  0  0  0  0  0  0  0  0  0
    1.3601  -15.6597    0.0000 C   0  0  0  0  0  0  0  0  0  0  0  0
    0.7500  -14.2894    0.0000 N   0  0  0  0  0  0  0  0  0  0  0  0
    1.5000  -12.9904    0.0000 C   0  0  0  0  0  0  0  0  0  0  0  0
    3.0000  -12.9904    0.0000 C   0  0  0  0  0  0  0  0  0  0  0  0
    3.7500  -11.6913    0.0000 C   0  0  0  0  0  0  0  0  0  0  0  0
    3.0000  -10.3923    0.0000 N   0  0  0  0  0  0  0  0  0  0  0  0
    3.7500   -9.0933    0.0000 C   0  0  0  0  0  0  0  0  0  0  0  0
    3.0000   -7.7942    0.0000 C   0  0  0  0  0  0  0  0  0  0  0  0
    3.7500   -6.4952    0.0000 C   0  0  0  0  0  0  0  0  0  0  0  0
    3.0000   -5.1962    0.0000 C   0  0  0  0  0  0  0  0  0  0  0  0
    1.5000   -5.1962    0.0000 C   0  0  0  0  0  0  0  0  0  0  0  0
    0.7500   -3.8971    0.0000 C   0  0  0  0  0  0  0  0  0  0  0  0
    1.5000   -2.5981    0.0000 N   0  0  0  0  0  0  0  0  0  0  0  0
    0.7500   -1.2990    0.0000 C   0  0  0  0  0  0  0  0  0  0  0  0
    1.5000    0.0000    0.0000 C   0  0  0  0  0  0  0  0  0  0  0  0
    0.7500    1.2990    0.0000 C   0  0  0  0  0  0  0  0  0  0  0  0
    1.5000    2.5981    0.0000 C   0  0  0  0  0  0  0  0  0  0  0  0
    0.8899    3.9684    0.0000 N   0  0  0  0  0  0  0  0  0  0  0  0
    2.0046    4.9721    0.0000 N   0  0  0  0  0  0  0  0  0  0  0  0
    3.3037    4.2221    0.0000 N   0  0  0  0  0  0  0  0  0  0  0  0
    2.9918    2.7549    0.0000 N   0  0  0  0  0  0  0  0  0  0  0  0
   -0.7500    1.2990    0.0000 C   0  0  0  0  0  0  0  0  0  0  0  0
   -1.5000    0.0000    0.0000 C   0  0  0  0  0  0  0  0  0  0  0  0
   -0.7500   -1.2990    0.0000 C   0  0  0  0  0  0  0  0  0  0  0  0
   -1.5000   -2.5981    0.0000 N   0  0  0  0  0  0  0  0  0  0  0  0
   -0.7500   -3.8971    0.0000 C   0  0  0  0  0  0  0  0  0  0  0  0
   -1.5000   -5.1962    0.0000 C   0  0  0  0  0  0  0  0  0  0  0  0
   -3.0000   -5.1962    0.0000 C   0  0  0  0  0  0  0  0  0  0  0  0
   -3.7500   -6.4952    0.0000 C   0  0  0  0  0  0  0  0  0  0  0  0
   -3.0000   -7.7942    0.0000 C   0  0  0  0  0  0  0  0  0  0  0  0
   -1.5000   -7.7942    0.0000 C   0  0  0  0  0  0  0  0  0  0  0  0
   -0.7500   -6.4952    0.0000 C   0  0  0  0  0  0  0  0  0  0  0  0
    0.7500   -6.4952    0.0000 C   0  0  0  0  0  0  0  0  0  0  0  0
    1.5000   -7.7942    0.0000 C   0  0  0  0  0  0  0  0  0  0  0  0
    1.5000  -10.3923    0.0000 C   0  0  0  0  0  0  0  0  0  0  0  0
    0.7500  -11.6913    0.0000 C   0  0  0  0  0  0  0  0  0  0  0  0
  1  2  2  0
  2  3  1  0
  3  4  1  0
  4  5  2  0
  5  6  1  0
  6  7  2  0
  7  8  1  0
  8  9  2  0
  9 10  1  0
 10 11  1  0
 11 12  1  0
 12 13  1  0
 13 14  1  0
 14 15  1  0
 15 16  1  0
 16 17  2  0
 17 18  1  0
 18 19  2  0
 19 20  1  0
 20 21  2  0
 21 22  1  0
 22 23  2  0
 23 24  1  0
 24 25  1  0
 25 26  1  0
 26 27  2  0
 27 28  1  0
 28 29  1  0
 24 30  2  0
 30 31  1  0
 31 32  2  0
 32 33  1  0
 33 34  2  0
 34 35  1  0
 35 36  2  0
 36 37  1  0
 37 38  2  0
 38 39  1  0
 39 40  2  0
 19 41  1  0
 41 42  2  0
 14 43  1  0
 43 44  1  0
 10  2  1  0
 44 11  1  0
  9  4  1  0
 42 16  1  0
 34 20  1  0
 40 35  1  0
 32 22  1  0
 29 25  2  0
M  END
>  <Compound_ID>  (89) 
CHEMBL408151

>  <Active>  (89) 
1

>  <Smiles>  (89) 
O=c1[nH]c2ccccc2n1C1CCN(Cc2ccc(-c3nc4cc(-c5nn[nH]n5)ccc4nc3-c3ccccc3)cc2)CC1

>  <canonical_smi>  (89) 
O=c1[nH]c2ccccc2n1C1CCN(Cc2ccc(-c3nc4cc(-c5nn[nH]n5)ccc4nc3-c3ccccc3)cc2)CC1

>  <Set>  (89) 
G2 active

>  <Set_type>  (89) 
Train

>  <MW>  (89) 
579.67

>  <HBD>  (89) 
2

>  <HBA>  (89) 
7

>  <NRB>  (89) 
6

>  <NR>  (89) 
8

>  <NAR>  (89) 
7

>  <PSA>  (89) 
121.27

>  <Standard Type>  (89) 
nan

>  <Standard Relation>  (89) 
nan

>  <Standard Units>  (89) 
nan

>  <Standard Value>  (89) 
nan

>  <Assay ChEMBL ID>  (89) 
nan

>  <Assay Description>  (89) 
nan

>  <BAO Label>  (89) 
nan

$$$$

     RDKit          2D

 40 46  0  0  0  0  0  0  0  0999 V2000
   -0.0000   -5.1073    0.0000 O   0  0  0  0  0  0  0  0  0  0  0  0
   -0.0000   -3.6073    0.0000 C   0  0  0  0  0  0  0  0  0  0  0  0
    1.2135   -2.7256    0.0000 N   0  0  0  0  0  0  0  0  0  0  0  0
    0.7500   -1.2990    0.0000 C   0  0  0  0  0  0  0  0  0  0  0  0
    1.5000    0.0000    0.0000 C   0  0  0  0  0  0  0  0  0  0  0  0
    0.7500    1.2990    0.0000 C   0  0  0  0  0  0  0  0  0  0  0  0
   -0.7500    1.2990    0.0000 C   0  0  0  0  0  0  0  0  0  0  0  0
   -1.5000    0.0000    0.0000 C   0  0  0  0  0  0  0  0  0  0  0  0
   -0.7500   -1.2990    0.0000 C   0  0  0  0  0  0  0  0  0  0  0  0
   -1.2135   -2.7256    0.0000 N   0  0  0  0  0  0  0  0  0  0  0  0
   -2.6401   -3.1891    0.0000 C   0  0  0  0  0  0  0  0  0  0  0  0
   -3.7548   -2.1855    0.0000 C   0  0  0  0  0  0  0  0  0  0  0  0
   -5.1814   -2.6490    0.0000 C   0  0  0  0  0  0  0  0  0  0  0  0
   -5.4933   -4.1162    0.0000 N   0  0  0  0  0  0  0  0  0  0  0  0
   -6.9199   -4.5797    0.0000 C   0  0  0  0  0  0  0  0  0  0  0  0
   -8.0346   -3.5760    0.0000 C   0  0  0  0  0  0  0  0  0  0  0  0
   -7.7227   -2.1088    0.0000 C   0  0  0  0  0  0  0  0  0  0  0  0
   -8.8374   -1.1051    0.0000 C   0  0  0  0  0  0  0  0  0  0  0  0
  -10.2640   -1.5686    0.0000 C   0  0  0  0  0  0  0  0  0  0  0  0
  -11.3787   -0.5649    0.0000 C   0  0  0  0  0  0  0  0  0  0  0  0
  -11.0669    0.9023    0.0000 N   0  0  0  0  0  0  0  0  0  0  0  0
  -12.1816    1.9060    0.0000 C   0  0  0  0  0  0  0  0  0  0  0  0
  -13.6082    1.4425    0.0000 C   0  0  0  0  0  0  0  0  0  0  0  0
  -14.7229    2.4461    0.0000 C   0  0  0  0  0  0  0  0  0  0  0  0
  -16.1901    2.1343    0.0000 N   0  0  0  0  0  0  0  0  0  0  0  0
  -16.9401    3.4333    0.0000 N   0  0  0  0  0  0  0  0  0  0  0  0
  -15.9364    4.5480    0.0000 N   0  0  0  0  0  0  0  0  0  0  0  0
  -14.5661    3.9379    0.0000 N   0  0  0  0  0  0  0  0  0  0  0  0
  -13.9200   -0.0248    0.0000 C   0  0  0  0  0  0  0  0  0  0  0  0
  -12.8053   -1.0285    0.0000 C   0  0  0  0  0  0  0  0  0  0  0  0
  -13.1172   -2.4957    0.0000 C   0  0  0  0  0  0  0  0  0  0  0  0
  -14.5438   -2.9592    0.0000 C   0  0  0  0  0  0  0  0  0  0  0  0
  -14.8556   -4.4264    0.0000 C   0  0  0  0  0  0  0  0  0  0  0  0
  -13.7409   -5.4301    0.0000 C   0  0  0  0  0  0  0  0  0  0  0  0
  -12.3143   -4.9666    0.0000 C   0  0  0  0  0  0  0  0  0  0  0  0
  -12.0025   -3.4994    0.0000 C   0  0  0  0  0  0  0  0  0  0  0  0
  -10.5759   -3.0359    0.0000 C   0  0  0  0  0  0  0  0  0  0  0  0
   -9.4612   -4.0396    0.0000 C   0  0  0  0  0  0  0  0  0  0  0  0
   -4.3786   -5.1199    0.0000 C   0  0  0  0  0  0  0  0  0  0  0  0
   -2.9520   -4.6564    0.0000 C   0  0  0  0  0  0  0  0  0  0  0  0
  1  2  2  0
  2  3  1  0
  3  4  1  0
  4  5  2  0
  5  6  1  0
  6  7  2  0
  7  8  1  0
  8  9  2  0
  9 10  1  0
 10 11  1  0
 11 12  1  0
 12 13  1  0
 13 14  1  0
 14 15  1  0
 15 16  1  0
 16 17  2  0
 17 18  1  0
 18 19  2  0
 19 20  1  0
 20 21  2  0
 21 22  1  0
 22 23  2  0
 23 24  1  0
 24 25  2  0
 25 26  1  0
 26 27  2  0
 27 28  1  0
 23 29  1  0
 29 30  2  0
 30 31  1  0
 31 32  2  0
 32 33  1  0
 33 34  2  0
 34 35  1  0
 35 36  2  0
 19 37  1  0
 37 38  2  0
 14 39  1  0
 39 40  1  0
 10  2  1  0
 40 11  1  0
  9  4  1  0
 38 16  1  0
 30 20  1  0
 36 31  1  0
 28 24  1  0
M  END
>  <Compound_ID>  (90) 
CHEMBL270847

>  <Active>  (90) 
1

>  <Smiles>  (90) 
O=c1[nH]c2ccccc2n1C1CCN(Cc2ccc(-c3ncc(-c4nnn[nH]4)cc3-c3ccccc3)cc2)CC1

>  <canonical_smi>  (90) 
O=c1[nH]c2ccccc2n1C1CCN(Cc2ccc(-c3ncc(-c4nnn[nH]4)cc3-c3ccccc3)cc2)CC1

>  <Set>  (90) 
G2 active

>  <Set_type>  (90) 
Train

>  <MW>  (90) 
528.62

>  <HBD>  (90) 
2

>  <HBA>  (90) 
6

>  <NRB>  (90) 
6

>  <NR>  (90) 
7

>  <NAR>  (90) 
6

>  <PSA>  (90) 
108.38

>  <Standard Type>  (90) 
nan

>  <Standard Relation>  (90) 
nan

>  <Standard Units>  (90) 
nan

>  <Standard Value>  (90) 
nan

>  <Assay ChEMBL ID>  (90) 
nan

>  <Assay Description>  (90) 
nan

>  <BAO Label>  (90) 
nan

$$$$

     RDKit          2D

 41 47  0  0  0  0  0  0  0  0999 V2000
  -13.2671    4.6879    0.0000 C   0  0  0  0  0  0  0  0  0  0  0  0
  -14.5661    3.9379    0.0000 N   0  0  0  0  0  0  0  0  0  0  0  0
  -15.9364    4.5480    0.0000 N   0  0  0  0  0  0  0  0  0  0  0  0
  -16.9401    3.4333    0.0000 N   0  0  0  0  0  0  0  0  0  0  0  0
  -16.1901    2.1343    0.0000 N   0  0  0  0  0  0  0  0  0  0  0  0
  -14.7229    2.4461    0.0000 C   0  0  0  0  0  0  0  0  0  0  0  0
  -13.6082    1.4425    0.0000 C   0  0  0  0  0  0  0  0  0  0  0  0
  -13.9200   -0.0248    0.0000 C   0  0  0  0  0  0  0  0  0  0  0  0
  -12.8053   -1.0285    0.0000 N   0  0  0  0  0  0  0  0  0  0  0  0
  -11.3787   -0.5649    0.0000 C   0  0  0  0  0  0  0  0  0  0  0  0
  -10.2640   -1.5686    0.0000 C   0  0  0  0  0  0  0  0  0  0  0  0
  -10.5759   -3.0359    0.0000 C   0  0  0  0  0  0  0  0  0  0  0  0
   -9.4612   -4.0396    0.0000 C   0  0  0  0  0  0  0  0  0  0  0  0
   -8.0346   -3.5760    0.0000 C   0  0  0  0  0  0  0  0  0  0  0  0
   -6.9199   -4.5797    0.0000 C   0  0  0  0  0  0  0  0  0  0  0  0
   -5.4933   -4.1162    0.0000 N   0  0  0  0  0  0  0  0  0  0  0  0
   -4.3786   -5.1199    0.0000 C   0  0  0  0  0  0  0  0  0  0  0  0
   -2.9520   -4.6564    0.0000 C   0  0  0  0  0  0  0  0  0  0  0  0
   -2.6401   -3.1891    0.0000 C   0  0  0  0  0  0  0  0  0  0  0  0
   -1.2135   -2.7256    0.0000 N   0  0  0  0  0  0  0  0  0  0  0  0
   -0.0000   -3.6073    0.0000 C   0  0  0  0  0  0  0  0  0  0  0  0
    0.0000   -5.1073    0.0000 O   0  0  0  0  0  0  0  0  0  0  0  0
    1.2135   -2.7256    0.0000 N   0  0  0  0  0  0  0  0  0  0  0  0
    0.7500   -1.2990    0.0000 C   0  0  0  0  0  0  0  0  0  0  0  0
    1.5000    0.0000    0.0000 C   0  0  0  0  0  0  0  0  0  0  0  0
    0.7500    1.2990    0.0000 C   0  0  0  0  0  0  0  0  0  0  0  0
   -0.7500    1.2990    0.0000 C   0  0  0  0  0  0  0  0  0  0  0  0
   -1.5000    0.0000    0.0000 C   0  0  0  0  0  0  0  0  0  0  0  0
   -0.7500   -1.2990    0.0000 C   0  0  0  0  0  0  0  0  0  0  0  0
   -3.7548   -2.1855    0.0000 C   0  0  0  0  0  0  0  0  0  0  0  0
   -5.1814   -2.6490    0.0000 C   0  0  0  0  0  0  0  0  0  0  0  0
   -7.7227   -2.1088    0.0000 C   0  0  0  0  0  0  0  0  0  0  0  0
   -8.8374   -1.1051    0.0000 C   0  0  0  0  0  0  0  0  0  0  0  0
  -11.0669    0.9023    0.0000 C   0  0  0  0  0  0  0  0  0  0  0  0
   -9.6403    1.3658    0.0000 C   0  0  0  0  0  0  0  0  0  0  0  0
   -8.5256    0.3621    0.0000 C   0  0  0  0  0  0  0  0  0  0  0  0
   -7.0990    0.8256    0.0000 C   0  0  0  0  0  0  0  0  0  0  0  0
   -6.7871    2.2929    0.0000 C   0  0  0  0  0  0  0  0  0  0  0  0
   -7.9018    3.2966    0.0000 C   0  0  0  0  0  0  0  0  0  0  0  0
   -9.3284    2.8330    0.0000 C   0  0  0  0  0  0  0  0  0  0  0  0
  -12.1816    1.9060    0.0000 C   0  0  0  0  0  0  0  0  0  0  0  0
  1  2  1  0
  2  3  1  0
  3  4  2  0
  4  5  1  0
  5  6  2  0
  6  7  1  0
  7  8  2  0
  8  9  1  0
  9 10  2  0
 10 11  1  0
 11 12  2  0
 12 13  1  0
 13 14  2  0
 14 15  1  0
 15 16  1  0
 16 17  1  0
 17 18  1  0
 18 19  1  0
 19 20  1  0
 20 21  1  0
 21 22  1  0
 21 23  2  0
 23 24  1  0
 24 25  2  0
 25 26  1  0
 26 27  2  0
 27 28  1  0
 28 29  2  0
 19 30  1  0
 30 31  1  0
 14 32  1  0
 32 33  2  0
 10 34  1  0
 34 35  1  0
 35 36  2  0
 36 37  1  0
 37 38  2  0
 38 39  1  0
 39 40  2  0
 34 41  2  0
  6  2  1  0
 41  7  1  0
 33 11  1  0
 40 35  1  0
 31 16  1  0
 29 20  1  0
 29 24  1  0
M  END
>  <Compound_ID>  (91) 
CHEMBL182101

>  <Active>  (91) 
1

>  <Smiles>  (91) 
Cn1nnnc1-c1cnc(-c2ccc(CN3CCC(n4c(O)nc5ccccc54)CC3)cc2)c(-c2ccccc2)c1

>  <canonical_smi>  (91) 
Cn1nnnc1-c1cnc(-c2ccc(CN3CCC(n4c(O)nc5ccccc54)CC3)cc2)c(-c2ccccc2)c1

>  <Set>  (91) 
G2 active

>  <Set_type>  (91) 
Train

>  <MW>  (91) 
542.65

>  <HBD>  (91) 
1

>  <HBA>  (91) 
7

>  <NRB>  (91) 
6

>  <NR>  (91) 
7

>  <NAR>  (91) 
6

>  <PSA>  (91) 
97.78

>  <Standard Type>  (91) 
nan

>  <Standard Relation>  (91) 
nan

>  <Standard Units>  (91) 
nan

>  <Standard Value>  (91) 
nan

>  <Assay ChEMBL ID>  (91) 
nan

>  <Assay Description>  (91) 
nan

>  <BAO Label>  (91) 
nan

$$$$

     RDKit          2D

 42 49  0  0  0  0  0  0  0  0999 V2000
    6.9559   11.4967    0.0000 O   0  0  0  0  0  0  0  0  0  0  0  0
    6.9559   12.9967    0.0000 C   0  0  0  0  0  0  0  0  0  0  0  0
    8.1695   13.8783    0.0000 N   0  0  0  0  0  0  0  0  0  0  0  0
    7.7059   15.3049    0.0000 C   0  0  0  0  0  0  0  0  0  0  0  0
    8.4559   16.6040    0.0000 C   0  0  0  0  0  0  0  0  0  0  0  0
    7.7059   17.9030    0.0000 C   0  0  0  0  0  0  0  0  0  0  0  0
    6.2059   17.9030    0.0000 C   0  0  0  0  0  0  0  0  0  0  0  0
    5.4559   16.6040    0.0000 C   0  0  0  0  0  0  0  0  0  0  0  0
    6.2059   15.3049    0.0000 C   0  0  0  0  0  0  0  0  0  0  0  0
    5.7424   13.8783    0.0000 N   0  0  0  0  0  0  0  0  0  0  0  0
    4.3158   13.4148    0.0000 C   0  0  0  0  0  0  0  0  0  0  0  0
    3.2011   14.4185    0.0000 C   0  0  0  0  0  0  0  0  0  0  0  0
    1.7745   13.9550    0.0000 C   0  0  0  0  0  0  0  0  0  0  0  0
    1.4627   12.4878    0.0000 N   0  0  0  0  0  0  0  0  0  0  0  0
    0.0361   12.0242    0.0000 C   0  0  0  0  0  0  0  0  0  0  0  0
   -0.2758   10.5570    0.0000 C   0  0  0  0  0  0  0  0  0  0  0  0
   -1.7024   10.0935    0.0000 C   0  0  0  0  0  0  0  0  0  0  0  0
   -2.0143    8.6263    0.0000 C   0  0  0  0  0  0  0  0  0  0  0  0
   -0.8995    7.6226    0.0000 C   0  0  0  0  0  0  0  0  0  0  0  0
   -1.2114    6.1554    0.0000 C   0  0  0  0  0  0  0  0  0  0  0  0
   -0.0967    5.1517    0.0000 N   0  0  0  0  0  0  0  0  0  0  0  0
   -0.4086    3.6844    0.0000 C   0  0  0  0  0  0  0  0  0  0  0  0
    0.7062    2.6807    0.0000 C   0  0  0  0  0  0  0  0  0  0  0  0
    0.3943    1.2135    0.0000 C   0  0  0  0  0  0  0  0  0  0  0  0
    1.2760    0.0000    0.0000 N   0  0  0  0  0  0  0  0  0  0  0  0
    0.3943   -1.2135    0.0000 C   0  0  0  0  0  0  0  0  0  0  0  0
   -1.0323   -0.7500    0.0000 N   0  0  0  0  0  0  0  0  0  0  0  0
   -1.0323    0.7500    0.0000 C   0  0  0  0  0  0  0  0  0  0  0  0
   -2.1470    1.7537    0.0000 C   0  0  0  0  0  0  0  0  0  0  0  0
   -1.8351    3.2209    0.0000 C   0  0  0  0  0  0  0  0  0  0  0  0
   -2.9499    4.2246    0.0000 N   0  0  0  0  0  0  0  0  0  0  0  0
   -2.6380    5.6918    0.0000 C   0  0  0  0  0  0  0  0  0  0  0  0
   -3.7527    6.6955    0.0000 C   0  0  0  0  0  0  0  0  0  0  0  0
   -3.4408    8.1628    0.0000 C   0  0  0  0  0  0  0  0  0  0  0  0
   -4.5556    9.1664    0.0000 C   0  0  0  0  0  0  0  0  0  0  0  0
   -5.9821    8.7029    0.0000 C   0  0  0  0  0  0  0  0  0  0  0  0
   -6.2940    7.2357    0.0000 C   0  0  0  0  0  0  0  0  0  0  0  0
   -5.1793    6.2320    0.0000 C   0  0  0  0  0  0  0  0  0  0  0  0
    0.5271    8.0861    0.0000 C   0  0  0  0  0  0  0  0  0  0  0  0
    0.8389    9.5533    0.0000 C   0  0  0  0  0  0  0  0  0  0  0  0
    2.5774   11.4841    0.0000 C   0  0  0  0  0  0  0  0  0  0  0  0
    4.0040   11.9476    0.0000 C   0  0  0  0  0  0  0  0  0  0  0  0
  1  2  2  0
  2  3  1  0
  3  4  1  0
  4  5  2  0
  5  6  1  0
  6  7  2  0
  7  8  1  0
  8  9  2  0
  9 10  1  0
 10 11  1  0
 11 12  1  0
 12 13  1  0
 13 14  1  0
 14 15  1  0
 15 16  1  0
 16 17  2  0
 17 18  1  0
 18 19  2  0
 19 20  1  0
 20 21  2  0
 21 22  1  0
 22 23  2  0
 23 24  1  0
 24 25  1  0
 25 26  2  0
 26 27  1  0
 27 28  1  0
 28 29  1  0
 29 30  2  0
 30 31  1  0
 31 32  2  0
 32 33  1  0
 33 34  2  0
 34 35  1  0
 35 36  2  0
 36 37  1  0
 37 38  2  0
 19 39  1  0
 39 40  2  0
 14 41  1  0
 41 42  1  0
 10  2  1  0
 42 11  1  0
  9  4  1  0
 40 16  1  0
 32 20  1  0
 38 33  1  0
 30 22  1  0
 28 24  2  0
M  END
>  <Compound_ID>  (92) 
CHEMBL258844

>  <Active>  (92) 
1

>  <Smiles>  (92) 
O=c1[nH]c2ccccc2n1C1CCN(Cc2ccc(-c3nc4cc5nc[nH]c5cc4nc3-c3ccccc3)cc2)CC1

>  <canonical_smi>  (92) 
O=c1[nH]c2ccccc2n1C1CCN(Cc2ccc(-c3nc4cc5nc[nH]c5cc4nc3-c3ccccc3)cc2)CC1

>  <Set>  (92) 
G2 active

>  <Set_type>  (92) 
Train

>  <MW>  (92) 
551.65

>  <HBD>  (92) 
2

>  <HBA>  (92) 
5

>  <NRB>  (92) 
5

>  <NR>  (92) 
8

>  <NAR>  (92) 
7

>  <PSA>  (92) 
95.49

>  <Standard Type>  (92) 
nan

>  <Standard Relation>  (92) 
nan

>  <Standard Units>  (92) 
nan

>  <Standard Value>  (92) 
nan

>  <Assay ChEMBL ID>  (92) 
nan

>  <Assay Description>  (92) 
nan

>  <BAO Label>  (92) 
nan

$$$$

     RDKit          2D

 40 46  0  0  0  0  0  0  0  0999 V2000
    3.0000   -7.7942    0.0000 C   0  0  0  0  0  0  0  0  0  0  0  0
    1.5000   -7.7942    0.0000 C   0  0  0  0  0  0  0  0  0  0  0  0
    0.7500   -6.4952    0.0000 C   0  0  0  0  0  0  0  0  0  0  0  0
    1.5000   -5.1962    0.0000 C   0  0  0  0  0  0  0  0  0  0  0  0
    0.7500   -3.8971    0.0000 C   0  0  0  0  0  0  0  0  0  0  0  0
    1.5000   -2.5981    0.0000 C   0  0  0  0  0  0  0  0  0  0  0  0
    0.7500   -1.2990    0.0000 C   0  0  0  0  0  0  0  0  0  0  0  0
    1.5000    0.0000    0.0000 C   0  0  0  0  0  0  0  0  0  0  0  0
    0.7500    1.2990    0.0000 N   0  0  0  0  0  0  0  0  0  0  0  0
   -0.7500    1.2990    0.0000 C   0  0  0  0  0  0  0  0  0  0  0  0
   -1.5000    0.0000    0.0000 C   0  0  0  0  0  0  0  0  0  0  0  0
   -0.7500   -1.2990    0.0000 C   0  0  0  0  0  0  0  0  0  0  0  0
   -1.5000   -2.5981    0.0000 N   0  0  0  0  0  0  0  0  0  0  0  0
   -0.7500   -3.8971    0.0000 C   0  0  0  0  0  0  0  0  0  0  0  0
   -1.5000   -5.1962    0.0000 C   0  0  0  0  0  0  0  0  0  0  0  0
   -3.0000   -5.1962    0.0000 C   0  0  0  0  0  0  0  0  0  0  0  0
   -3.7500   -6.4952    0.0000 C   0  0  0  0  0  0  0  0  0  0  0  0
   -3.0000   -7.7942    0.0000 C   0  0  0  0  0  0  0  0  0  0  0  0
   -3.7500   -9.0933    0.0000 C   0  0  0  0  0  0  0  0  0  0  0  0
   -5.2500   -9.0933    0.0000 N   0  0  0  0  0  0  0  0  0  0  0  0
   -6.0000   -7.7942    0.0000 C   0  0  0  0  0  0  0  0  0  0  0  0
   -7.5000   -7.7942    0.0000 C   0  0  0  0  0  0  0  0  0  0  0  0
   -8.2500   -9.0933    0.0000 C   0  0  0  0  0  0  0  0  0  0  0  0
   -9.7500   -9.0933    0.0000 C   0  0  0  0  0  0  0  0  0  0  0  0
  -10.6317  -10.3068    0.0000 N   0  0  0  0  0  0  0  0  0  0  0  0
  -12.0583   -9.8433    0.0000 N   0  0  0  0  0  0  0  0  0  0  0  0
  -12.0583   -8.3433    0.0000 C   0  0  0  0  0  0  0  0  0  0  0  0
  -13.2718   -7.4616    0.0000 C   0  0  0  0  0  0  0  0  0  0  0  0
  -13.1150   -5.9698    0.0000 C   0  0  0  0  0  0  0  0  0  0  0  0
  -14.3285   -5.0881    0.0000 C   0  0  0  0  0  0  0  0  0  0  0  0
  -15.6988   -5.6982    0.0000 C   0  0  0  0  0  0  0  0  0  0  0  0
  -15.8556   -7.1900    0.0000 C   0  0  0  0  0  0  0  0  0  0  0  0
  -14.6421   -8.0717    0.0000 N   0  0  0  0  0  0  0  0  0  0  0  0
  -10.6317   -7.8797    0.0000 N   0  0  0  0  0  0  0  0  0  0  0  0
   -7.5000  -10.3923    0.0000 C   0  0  0  0  0  0  0  0  0  0  0  0
   -6.0000  -10.3923    0.0000 C   0  0  0  0  0  0  0  0  0  0  0  0
   -1.5000   -7.7942    0.0000 C   0  0  0  0  0  0  0  0  0  0  0  0
   -0.7500   -6.4952    0.0000 C   0  0  0  0  0  0  0  0  0  0  0  0
    3.0000   -5.1962    0.0000 C   0  0  0  0  0  0  0  0  0  0  0  0
    3.7500   -6.4952    0.0000 C   0  0  0  0  0  0  0  0  0  0  0  0
  1  2  2  0
  2  3  1  0
  3  4  2  0
  4  5  1  0
  5  6  2  0
  6  7  1  0
  7  8  2  0
  8  9  1  0
  9 10  2  0
 10 11  1  0
 11 12  2  0
 12 13  1  0
 13 14  2  0
 14 15  1  0
 15 16  2  0
 16 17  1  0
 17 18  2  0
 18 19  1  0
 19 20  1  0
 20 21  1  0
 21 22  1  0
 22 23  1  0
 23 24  1  0
 24 25  2  0
 25 26  1  0
 26 27  1  0
 27 28  1  0
 28 29  2  0
 29 30  1  0
 30 31  2  0
 31 32  1  0
 32 33  2  0
 27 34  2  0
 23 35  1  0
 35 36  1  0
 18 37  1  0
 37 38  2  0
  4 39  1  0
 39 40  2  0
 40  1  1  0
 14  5  1  0
 38 15  1  0
 12  7  1  0
 36 20  1  0
 34 24  1  0
 33 28  1  0
M  END
>  <Compound_ID>  (93) 
CHEMBL259967

>  <Active>  (93) 
1

>  <Smiles>  (93) 
c1ccc(-c2cc3cnccc3nc2-c2ccc(CN3CCC(c4n[nH]c(-c5ccccn5)n4)CC3)cc2)cc1

>  <canonical_smi>  (93) 
c1ccc(-c2cc3cnccc3nc2-c2ccc(CN3CCC(c4n[nH]c(-c5ccccn5)n4)CC3)cc2)cc1

>  <Set>  (93) 
G2 active

>  <Set_type>  (93) 
Train

>  <MW>  (93) 
523.64

>  <HBD>  (93) 
1

>  <HBA>  (93) 
6

>  <NRB>  (93) 
6

>  <NR>  (93) 
7

>  <NAR>  (93) 
6

>  <PSA>  (93) 
83.48

>  <Standard Type>  (93) 
nan

>  <Standard Relation>  (93) 
nan

>  <Standard Units>  (93) 
nan

>  <Standard Value>  (93) 
nan

>  <Assay ChEMBL ID>  (93) 
nan

>  <Assay Description>  (93) 
nan

>  <BAO Label>  (93) 
nan

$$$$

     RDKit          2D

 40 46  0  0  0  0  0  0  0  0999 V2000
    3.0000    0.0000    0.0000 N   0  0  0  0  0  0  0  0  0  0  0  0
    1.5000    0.0000    0.0000 C   0  0  0  0  0  0  0  0  0  0  0  0
    0.7500   -1.2990    0.0000 N   0  0  0  0  0  0  0  0  0  0  0  0
   -0.7500   -1.2990    0.0000 C   0  0  0  0  0  0  0  0  0  0  0  0
   -1.5000    0.0000    0.0000 N   0  0  0  0  0  0  0  0  0  0  0  0
   -0.7500    1.2990    0.0000 C   0  0  0  0  0  0  0  0  0  0  0  0
   -1.5000    2.5981    0.0000 N   0  0  0  0  0  0  0  0  0  0  0  0
   -0.7500    3.8971    0.0000 C   0  0  0  0  0  0  0  0  0  0  0  0
   -1.5000    5.1962    0.0000 C   0  0  0  0  0  0  0  0  0  0  0  0
   -0.7500    6.4952    0.0000 C   0  0  0  0  0  0  0  0  0  0  0  0
   -1.5000    7.7942    0.0000 C   0  0  0  0  0  0  0  0  0  0  0  0
   -3.0000    7.7942    0.0000 C   0  0  0  0  0  0  0  0  0  0  0  0
   -3.7500    9.0933    0.0000 C   0  0  0  0  0  0  0  0  0  0  0  0
   -3.0000   10.3923    0.0000 N   0  0  0  0  0  0  0  0  0  0  0  0
   -1.5000   10.3923    0.0000 C   0  0  0  0  0  0  0  0  0  0  0  0
   -0.7500   11.6913    0.0000 C   0  0  0  0  0  0  0  0  0  0  0  0
   -1.5000   12.9904    0.0000 C   0  0  0  0  0  0  0  0  0  0  0  0
   -0.7500   14.2894    0.0000 C   0  0  0  0  0  0  0  0  0  0  0  0
    0.7418   14.4462    0.0000 N   0  0  0  0  0  0  0  0  0  0  0  0
    1.0537   15.9134    0.0000 C   0  0  0  0  0  0  0  0  0  0  0  0
    2.3527   16.6634    0.0000 C   0  0  0  0  0  0  0  0  0  0  0  0
    2.3527   18.1634    0.0000 C   0  0  0  0  0  0  0  0  0  0  0  0
    1.0537   18.9134    0.0000 C   0  0  0  0  0  0  0  0  0  0  0  0
    1.0537   20.4134    0.0000 F   0  0  0  0  0  0  0  0  0  0  0  0
   -0.2454   18.1634    0.0000 C   0  0  0  0  0  0  0  0  0  0  0  0
   -0.2454   16.6634    0.0000 C   0  0  0  0  0  0  0  0  0  0  0  0
   -1.3601   15.6597    0.0000 N   0  0  0  0  0  0  0  0  0  0  0  0
   -3.0000   12.9904    0.0000 C   0  0  0  0  0  0  0  0  0  0  0  0
   -3.7500   11.6913    0.0000 C   0  0  0  0  0  0  0  0  0  0  0  0
   -3.7500    6.4952    0.0000 C   0  0  0  0  0  0  0  0  0  0  0  0
   -3.0000    5.1962    0.0000 C   0  0  0  0  0  0  0  0  0  0  0  0
    0.7500    3.8971    0.0000 C   0  0  0  0  0  0  0  0  0  0  0  0
    1.5000    5.1962    0.0000 C   0  0  0  0  0  0  0  0  0  0  0  0
    3.0000    5.1962    0.0000 C   0  0  0  0  0  0  0  0  0  0  0  0
    3.7500    6.4952    0.0000 C   0  0  0  0  0  0  0  0  0  0  0  0
    3.0000    7.7942    0.0000 C   0  0  0  0  0  0  0  0  0  0  0  0
    1.5000    7.7942    0.0000 C   0  0  0  0  0  0  0  0  0  0  0  0
    0.7500    6.4952    0.0000 C   0  0  0  0  0  0  0  0  0  0  0  0
    1.5000    2.5981    0.0000 C   0  0  0  0  0  0  0  0  0  0  0  0
    0.7500    1.2990    0.0000 C   0  0  0  0  0  0  0  0  0  0  0  0
  1  2  1  0
  2  3  2  0
  3  4  1  0
  4  5  2  0
  5  6  1  0
  6  7  2  0
  7  8  1  0
  8  9  1  0
  9 10  2  0
 10 11  1  0
 11 12  2  0
 12 13  1  0
 13 14  1  0
 14 15  1  0
 15 16  1  0
 16 17  1  0
 17 18  1  0
 18 19  2  0
 19 20  1  0
 20 21  2  0
 21 22  1  0
 22 23  2  0
 23 24  1  0
 23 25  1  0
 25 26  2  0
 26 27  1  0
 17 28  1  0
 28 29  1  0
 12 30  1  0
 30 31  2  0
  8 32  2  0
 32 33  1  0
 33 34  2  0
 34 35  1  0
 35 36  2  0
 36 37  1  0
 37 38  2  0
 32 39  1  0
 39 40  2  0
 40  2  1  0
 40  6  1  0
 31  9  1  0
 38 33  1  0
 29 14  1  0
 27 18  1  0
 26 20  1  0
M  END
>  <Compound_ID>  (94) 
CHEMBL253457

>  <Active>  (94) 
1

>  <Smiles>  (94) 
Nc1ncnc2nc(-c3ccc(CN4CCC(c5nc6ccc(F)cc6[nH]5)CC4)cc3)c(-c3ccccc3)cc12

>  <canonical_smi>  (94) 
Nc1ncnc2nc(-c3ccc(CN4CCC(c5nc6ccc(F)cc6[nH]5)CC4)cc3)c(-c3ccccc3)cc12

>  <Set>  (94) 
G2 active

>  <Set_type>  (94) 
Train

>  <MW>  (94) 
529.62

>  <HBD>  (94) 
2

>  <HBA>  (94) 
6

>  <NRB>  (94) 
5

>  <NR>  (94) 
7

>  <NAR>  (94) 
6

>  <PSA>  (94) 
96.61

>  <Standard Type>  (94) 
nan

>  <Standard Relation>  (94) 
nan

>  <Standard Units>  (94) 
nan

>  <Standard Value>  (94) 
nan

>  <Assay ChEMBL ID>  (94) 
nan

>  <Assay Description>  (94) 
nan

>  <BAO Label>  (94) 
nan

$$$$

     RDKit          2D

 28 32  0  0  0  0  0  0  0  0999 V2000
   -2.7395   -3.7189    0.0000 N   0  0  0  0  0  0  0  0  0  0  0  0
   -3.0000   -5.1962    0.0000 C   0  0  0  0  0  0  0  0  0  0  0  0
   -1.5000   -5.1962    0.0000 C   0  0  0  0  0  0  0  0  0  0  0  0
   -0.7500   -6.4952    0.0000 O   0  0  0  0  0  0  0  0  0  0  0  0
   -0.7500   -3.8971    0.0000 N   0  0  0  0  0  0  0  0  0  0  0  0
    0.7500   -3.8971    0.0000 C   0  0  0  0  0  0  0  0  0  0  0  0
    1.5000   -2.5981    0.0000 C   0  0  0  0  0  0  0  0  0  0  0  0
    0.7500   -1.2990    0.0000 C   0  0  0  0  0  0  0  0  0  0  0  0
    1.5000    0.0000    0.0000 C   0  0  0  0  0  0  0  0  0  0  0  0
    0.7500    1.2990    0.0000 C   0  0  0  0  0  0  0  0  0  0  0  0
   -0.7500    1.2990    0.0000 C   0  0  0  0  0  0  0  0  0  0  0  0
   -1.5000    0.0000    0.0000 C   0  0  0  0  0  0  0  0  0  0  0  0
   -0.7500   -1.2990    0.0000 C   0  0  0  0  0  0  0  0  0  0  0  0
   -1.5000   -2.5981    0.0000 C   0  0  0  0  0  0  0  0  0  0  0  0
   -2.7395   -6.6734    0.0000 C   0  0  0  0  0  0  0  0  0  0  0  0
   -3.8886   -7.6375    0.0000 C   0  0  0  0  0  0  0  0  0  0  0  0
   -5.2981   -7.1245    0.0000 N   0  0  0  0  0  0  0  0  0  0  0  0
   -6.4472   -8.0887    0.0000 C   0  0  0  0  0  0  0  0  0  0  0  0
   -7.8567   -7.5757    0.0000 N   0  0  0  0  0  0  0  0  0  0  0  0
   -9.0058   -8.5398    0.0000 C   0  0  0  0  0  0  0  0  0  0  0  0
   -8.7453  -10.0171    0.0000 N   0  0  0  0  0  0  0  0  0  0  0  0
   -7.3358  -10.5301    0.0000 C   0  0  0  0  0  0  0  0  0  0  0  0
   -6.7739  -11.9209    0.0000 N   0  0  0  0  0  0  0  0  0  0  0  0
   -5.2775  -11.8162    0.0000 C   0  0  0  0  0  0  0  0  0  0  0  0
   -4.9147  -10.3608    0.0000 C   0  0  0  0  0  0  0  0  0  0  0  0
   -6.1867   -9.5659    0.0000 C   0  0  0  0  0  0  0  0  0  0  0  0
   -5.5586   -5.6473    0.0000 C   0  0  0  0  0  0  0  0  0  0  0  0
   -4.4095   -4.6831    0.0000 C   0  0  0  0  0  0  0  0  0  0  0  0
  1  2  1  0
  2  3  1  0
  3  4  2  0
  3  5  1  0
  5  6  1  0
  6  7  1  0
  7  8  1  0
  8  9  2  0
  9 10  1  0
 10 11  2  0
 11 12  1  0
 12 13  2  0
 13 14  1  0
  2 15  1  0
 15 16  1  0
 16 17  1  0
 17 18  1  0
 18 19  2  0
 19 20  1  0
 20 21  2  0
 21 22  1  0
 22 23  1  0
 23 24  1  0
 24 25  2  0
 25 26  1  0
 17 27  1  0
 27 28  1  0
 28  2  1  0
 14  5  1  0
 26 18  1  0
 13  8  1  0
 26 22  2  0
M  END
>  <Compound_ID>  (95) 
CHEMBL596990

>  <Active>  (95) 
1

>  <Smiles>  (95) 
NC1(C(=O)N2CCc3ccccc3C2)CCN(c2ncnc3[nH]ccc23)CC1

>  <canonical_smi>  (95) 
NC1(C(=O)N2CCc3ccccc3C2)CCN(c2ncnc3[nH]ccc23)CC1

>  <Set>  (95) 
G2 active

>  <Set_type>  (95) 
Train

>  <MW>  (95) 
376.46

>  <HBD>  (95) 
2

>  <HBA>  (95) 
5

>  <NRB>  (95) 
2

>  <NR>  (95) 
5

>  <NAR>  (95) 
3

>  <PSA>  (95) 
91.14

>  <Standard Type>  (95) 
nan

>  <Standard Relation>  (95) 
nan

>  <Standard Units>  (95) 
nan

>  <Standard Value>  (95) 
nan

>  <Assay ChEMBL ID>  (95) 
nan

>  <Assay Description>  (95) 
nan

>  <BAO Label>  (95) 
nan

$$$$

     RDKit          2D

 37 42  0  0  0  0  0  0  0  0999 V2000
    3.7500   -1.2990    0.0000 C   0  0  0  0  0  0  0  0  0  0  0  0
    3.0000    0.0000    0.0000 S   0  0  0  0  0  0  0  0  0  0  0  0
    1.5000    0.0000    0.0000 C   0  0  0  0  0  0  0  0  0  0  0  0
    0.7500   -1.2990    0.0000 N   0  0  0  0  0  0  0  0  0  0  0  0
   -0.7500   -1.2990    0.0000 C   0  0  0  0  0  0  0  0  0  0  0  0
   -1.5000    0.0000    0.0000 C   0  0  0  0  0  0  0  0  0  0  0  0
   -3.0000    0.0000    0.0000 C   0  0  0  0  0  0  0  0  0  0  0  0
   -3.7500    1.2990    0.0000 C   0  0  0  0  0  0  0  0  0  0  0  0
   -5.2500    1.2990    0.0000 C   0  0  0  0  0  0  0  0  0  0  0  0
   -6.0000    2.5981    0.0000 C   0  0  0  0  0  0  0  0  0  0  0  0
   -7.5000    2.5981    0.0000 C   0  0  0  0  0  0  0  0  0  0  0  0
   -8.2500    1.2990    0.0000 C   0  0  0  0  0  0  0  0  0  0  0  0
   -7.5000    0.0000    0.0000 C   0  0  0  0  0  0  0  0  0  0  0  0
   -6.0000    0.0000    0.0000 C   0  0  0  0  0  0  0  0  0  0  0  0
   -3.0000    2.5981    0.0000 C   0  0  0  0  0  0  0  0  0  0  0  0
   -3.7500    3.8971    0.0000 C   0  0  0  0  0  0  0  0  0  0  0  0
   -3.0000    5.1962    0.0000 C   0  0  0  0  0  0  0  0  0  0  0  0
   -3.7500    6.4952    0.0000 C   0  0  0  0  0  0  0  0  0  0  0  0
   -5.2500    6.4952    0.0000 C   0  0  0  0  0  0  0  0  0  0  0  0
   -6.0000    7.7942    0.0000 C   0  0  0  0  0  0  0  0  0  0  0  0
   -5.2500    9.0933    0.0000 N   0  0  0  0  0  0  0  0  0  0  0  0
   -3.7500    9.0933    0.0000 C   0  0  0  0  0  0  0  0  0  0  0  0
   -3.0000   10.3923    0.0000 C   0  0  0  0  0  0  0  0  0  0  0  0
   -3.7500   11.6913    0.0000 C   0  0  0  0  0  0  0  0  0  0  0  0
   -3.0000   12.9904    0.0000 C   0  0  0  0  0  0  0  0  0  0  0  0
   -3.6101   14.3607    0.0000 N   0  0  0  0  0  0  0  0  0  0  0  0
   -2.4954   15.3644    0.0000 N   0  0  0  0  0  0  0  0  0  0  0  0
   -1.1963   14.6144    0.0000 C   0  0  0  0  0  0  0  0  0  0  0  0
    0.1740   15.2245    0.0000 N   0  0  0  0  0  0  0  0  0  0  0  0
   -1.5082   13.1472    0.0000 S   0  0  0  0  0  0  0  0  0  0  0  0
   -5.2500   11.6913    0.0000 C   0  0  0  0  0  0  0  0  0  0  0  0
   -6.0000   10.3923    0.0000 C   0  0  0  0  0  0  0  0  0  0  0  0
   -6.0000    5.1962    0.0000 C   0  0  0  0  0  0  0  0  0  0  0  0
   -5.2500    3.8971    0.0000 C   0  0  0  0  0  0  0  0  0  0  0  0
   -1.5000    2.5981    0.0000 N   0  0  0  0  0  0  0  0  0  0  0  0
   -0.7500    1.2990    0.0000 C   0  0  0  0  0  0  0  0  0  0  0  0
    0.7500    1.2990    0.0000 N   0  0  0  0  0  0  0  0  0  0  0  0
  1  2  1  0
  2  3  1  0
  3  4  2  0
  4  5  1  0
  5  6  2  0
  6  7  1  0
  7  8  2  0
  8  9  1  0
  9 10  2  0
 10 11  1  0
 11 12  2  0
 12 13  1  0
 13 14  2  0
  8 15  1  0
 15 16  1  0
 16 17  2  0
 17 18  1  0
 18 19  2  0
 19 20  1  0
 20 21  1  0
 21 22  1  0
 22 23  1  0
 23 24  1  0
 24 25  1  0
 25 26  2  0
 26 27  1  0
 27 28  2  0
 28 29  1  0
 28 30  1  0
 24 31  1  0
 31 32  1  0
 19 33  1  0
 33 34  2  0
 15 35  2  0
 35 36  1  0
 36 37  2  0
 37  3  1  0
 36  6  1  0
 14  9  1  0
 34 16  1  0
 32 21  1  0
 30 25  1  0
M  END
>  <Compound_ID>  (96) 
CHEMBL403356

>  <Active>  (96) 
1

>  <Smiles>  (96) 
CSc1ncc2cc(-c3ccccc3)c(-c3ccc(CN4CCC(c5nnc(N)s5)CC4)cc3)nc2n1

>  <canonical_smi>  (96) 
CSc1ncc2cc(-c3ccccc3)c(-c3ccc(CN4CCC(c5nnc(N)s5)CC4)cc3)nc2n1

>  <Set>  (96) 
G2 active

>  <Set_type>  (96) 
Train

>  <MW>  (96) 
525.71

>  <HBD>  (96) 
1

>  <HBA>  (96) 
8

>  <NRB>  (96) 
6

>  <NR>  (96) 
6

>  <NAR>  (96) 
5

>  <PSA>  (96) 
93.71

>  <Standard Type>  (96) 
nan

>  <Standard Relation>  (96) 
nan

>  <Standard Units>  (96) 
nan

>  <Standard Value>  (96) 
nan

>  <Assay ChEMBL ID>  (96) 
nan

>  <Assay Description>  (96) 
nan

>  <BAO Label>  (96) 
nan

$$$$

     RDKit          2D

 40 46  0  0  0  0  0  0  0  0999 V2000
   -1.7455  -13.3315    0.0000 C   0  0  0  0  0  0  0  0  0  0  0  0
   -0.7418  -14.4462    0.0000 C   0  0  0  0  0  0  0  0  0  0  0  0
   -1.0537  -15.9134    0.0000 N   0  0  0  0  0  0  0  0  0  0  0  0
    0.2454  -16.6634    0.0000 C   0  0  0  0  0  0  0  0  0  0  0  0
    0.5573  -18.1307    0.0000 C   0  0  0  0  0  0  0  0  0  0  0  0
    1.9838  -18.5942    0.0000 C   0  0  0  0  0  0  0  0  0  0  0  0
    3.0986  -17.5905    0.0000 C   0  0  0  0  0  0  0  0  0  0  0  0
    2.7867  -16.1233    0.0000 C   0  0  0  0  0  0  0  0  0  0  0  0
    1.3601  -15.6597    0.0000 C   0  0  0  0  0  0  0  0  0  0  0  0
    0.7500  -14.2894    0.0000 N   0  0  0  0  0  0  0  0  0  0  0  0
    1.5000  -12.9904    0.0000 C   0  0  0  0  0  0  0  0  0  0  0  0
    3.0000  -12.9904    0.0000 C   0  0  0  0  0  0  0  0  0  0  0  0
    3.7500  -11.6913    0.0000 C   0  0  0  0  0  0  0  0  0  0  0  0
    3.0000  -10.3923    0.0000 N   0  0  0  0  0  0  0  0  0  0  0  0
    3.7500   -9.0933    0.0000 C   0  0  0  0  0  0  0  0  0  0  0  0
    3.0000   -7.7942    0.0000 C   0  0  0  0  0  0  0  0  0  0  0  0
    3.7500   -6.4952    0.0000 C   0  0  0  0  0  0  0  0  0  0  0  0
    3.0000   -5.1962    0.0000 C   0  0  0  0  0  0  0  0  0  0  0  0
    1.5000   -5.1962    0.0000 C   0  0  0  0  0  0  0  0  0  0  0  0
    0.7500   -3.8971    0.0000 C   0  0  0  0  0  0  0  0  0  0  0  0
    1.5000   -2.5981    0.0000 N   0  0  0  0  0  0  0  0  0  0  0  0
    0.7500   -1.2990    0.0000 C   0  0  0  0  0  0  0  0  0  0  0  0
    1.5000    0.0000    0.0000 N   0  0  0  0  0  0  0  0  0  0  0  0
    0.7500    1.2990    0.0000 C   0  0  0  0  0  0  0  0  0  0  0  0
   -0.7500    1.2990    0.0000 N   0  0  0  0  0  0  0  0  0  0  0  0
   -1.5000    0.0000    0.0000 C   0  0  0  0  0  0  0  0  0  0  0  0
   -3.0000    0.0000    0.0000 N   0  0  0  0  0  0  0  0  0  0  0  0
   -0.7500   -1.2990    0.0000 C   0  0  0  0  0  0  0  0  0  0  0  0
   -1.5000   -2.5981    0.0000 C   0  0  0  0  0  0  0  0  0  0  0  0
   -0.7500   -3.8971    0.0000 C   0  0  0  0  0  0  0  0  0  0  0  0
   -1.5000   -5.1962    0.0000 C   0  0  0  0  0  0  0  0  0  0  0  0
   -3.0000   -5.1962    0.0000 C   0  0  0  0  0  0  0  0  0  0  0  0
   -3.7500   -6.4952    0.0000 C   0  0  0  0  0  0  0  0  0  0  0  0
   -3.0000   -7.7942    0.0000 C   0  0  0  0  0  0  0  0  0  0  0  0
   -1.5000   -7.7942    0.0000 C   0  0  0  0  0  0  0  0  0  0  0  0
   -0.7500   -6.4952    0.0000 C   0  0  0  0  0  0  0  0  0  0  0  0
    0.7500   -6.4952    0.0000 C   0  0  0  0  0  0  0  0  0  0  0  0
    1.5000   -7.7942    0.0000 C   0  0  0  0  0  0  0  0  0  0  0  0
    1.5000  -10.3923    0.0000 C   0  0  0  0  0  0  0  0  0  0  0  0
    0.7500  -11.6913    0.0000 C   0  0  0  0  0  0  0  0  0  0  0  0
  1  2  1  0
  2  3  2  0
  3  4  1  0
  4  5  2  0
  5  6  1  0
  6  7  2  0
  7  8  1  0
  8  9  2  0
  9 10  1  0
 10 11  1  0
 11 12  1  0
 12 13  1  0
 13 14  1  0
 14 15  1  0
 15 16  1  0
 16 17  2  0
 17 18  1  0
 18 19  2  0
 19 20  1  0
 20 21  2  0
 21 22  1  0
 22 23  2  0
 23 24  1  0
 24 25  2  0
 25 26  1  0
 26 27  1  0
 26 28  2  0
 28 29  1  0
 29 30  2  0
 30 31  1  0
 31 32  2  0
 32 33  1  0
 33 34  2  0
 34 35  1  0
 35 36  2  0
 19 37  1  0
 37 38  2  0
 14 39  1  0
 39 40  1  0
 10  2  1  0
 40 11  1  0
  9  4  1  0
 38 16  1  0
 30 20  1  0
 36 31  1  0
 28 22  1  0
M  END
>  <Compound_ID>  (97) 
CHEMBL402579

>  <Active>  (97) 
1

>  <Smiles>  (97) 
Cc1nc2ccccc2n1C1CCN(Cc2ccc(-c3nc4ncnc(N)c4cc3-c3ccccc3)cc2)CC1

>  <canonical_smi>  (97) 
Cc1nc2ccccc2n1C1CCN(Cc2ccc(-c3nc4ncnc(N)c4cc3-c3ccccc3)cc2)CC1

>  <Set>  (97) 
G2 active

>  <Set_type>  (97) 
Train

>  <MW>  (97) 
525.66

>  <HBD>  (97) 
1

>  <HBA>  (97) 
6

>  <NRB>  (97) 
5

>  <NR>  (97) 
7

>  <NAR>  (97) 
6

>  <PSA>  (97) 
85.75

>  <Standard Type>  (97) 
nan

>  <Standard Relation>  (97) 
nan

>  <Standard Units>  (97) 
nan

>  <Standard Value>  (97) 
nan

>  <Assay ChEMBL ID>  (97) 
nan

>  <Assay Description>  (97) 
nan

>  <BAO Label>  (97) 
nan

$$$$

     RDKit          2D

 42 49  0  0  0  0  0  0  0  0999 V2000
    6.9559   11.4967    0.0000 O   0  0  0  0  0  0  0  0  0  0  0  0
    6.9559   12.9967    0.0000 C   0  0  0  0  0  0  0  0  0  0  0  0
    8.1695   13.8783    0.0000 N   0  0  0  0  0  0  0  0  0  0  0  0
    7.7059   15.3049    0.0000 C   0  0  0  0  0  0  0  0  0  0  0  0
    8.4559   16.6040    0.0000 C   0  0  0  0  0  0  0  0  0  0  0  0
    7.7059   17.9030    0.0000 C   0  0  0  0  0  0  0  0  0  0  0  0
    6.2059   17.9030    0.0000 C   0  0  0  0  0  0  0  0  0  0  0  0
    5.4559   16.6040    0.0000 C   0  0  0  0  0  0  0  0  0  0  0  0
    6.2059   15.3049    0.0000 C   0  0  0  0  0  0  0  0  0  0  0  0
    5.7424   13.8783    0.0000 N   0  0  0  0  0  0  0  0  0  0  0  0
    4.3158   13.4148    0.0000 C   0  0  0  0  0  0  0  0  0  0  0  0
    3.2011   14.4185    0.0000 C   0  0  0  0  0  0  0  0  0  0  0  0
    1.7745   13.9550    0.0000 C   0  0  0  0  0  0  0  0  0  0  0  0
    1.4627   12.4878    0.0000 N   0  0  0  0  0  0  0  0  0  0  0  0
    0.0361   12.0242    0.0000 C   0  0  0  0  0  0  0  0  0  0  0  0
   -0.2758   10.5570    0.0000 C   0  0  0  0  0  0  0  0  0  0  0  0
   -1.7024   10.0935    0.0000 C   0  0  0  0  0  0  0  0  0  0  0  0
   -2.0143    8.6263    0.0000 C   0  0  0  0  0  0  0  0  0  0  0  0
   -0.8995    7.6226    0.0000 C   0  0  0  0  0  0  0  0  0  0  0  0
   -1.2114    6.1554    0.0000 C   0  0  0  0  0  0  0  0  0  0  0  0
   -0.0967    5.1517    0.0000 N   0  0  0  0  0  0  0  0  0  0  0  0
   -0.4086    3.6844    0.0000 C   0  0  0  0  0  0  0  0  0  0  0  0
    0.7062    2.6807    0.0000 C   0  0  0  0  0  0  0  0  0  0  0  0
    0.3943    1.2135    0.0000 C   0  0  0  0  0  0  0  0  0  0  0  0
    1.2760    0.0000    0.0000 C   0  0  0  0  0  0  0  0  0  0  0  0
    0.3943   -1.2135    0.0000 N   0  0  0  0  0  0  0  0  0  0  0  0
   -1.0323   -0.7500    0.0000 N   0  0  0  0  0  0  0  0  0  0  0  0
   -1.0323    0.7500    0.0000 C   0  0  0  0  0  0  0  0  0  0  0  0
   -2.1470    1.7537    0.0000 C   0  0  0  0  0  0  0  0  0  0  0  0
   -1.8351    3.2209    0.0000 C   0  0  0  0  0  0  0  0  0  0  0  0
   -2.9499    4.2246    0.0000 N   0  0  0  0  0  0  0  0  0  0  0  0
   -2.6380    5.6918    0.0000 C   0  0  0  0  0  0  0  0  0  0  0  0
   -3.7527    6.6955    0.0000 C   0  0  0  0  0  0  0  0  0  0  0  0
   -3.4408    8.1628    0.0000 C   0  0  0  0  0  0  0  0  0  0  0  0
   -4.5556    9.1664    0.0000 C   0  0  0  0  0  0  0  0  0  0  0  0
   -5.9821    8.7029    0.0000 C   0  0  0  0  0  0  0  0  0  0  0  0
   -6.2940    7.2357    0.0000 C   0  0  0  0  0  0  0  0  0  0  0  0
   -5.1793    6.2320    0.0000 C   0  0  0  0  0  0  0  0  0  0  0  0
    0.5271    8.0861    0.0000 C   0  0  0  0  0  0  0  0  0  0  0  0
    0.8389    9.5533    0.0000 C   0  0  0  0  0  0  0  0  0  0  0  0
    2.5774   11.4841    0.0000 C   0  0  0  0  0  0  0  0  0  0  0  0
    4.0040   11.9476    0.0000 C   0  0  0  0  0  0  0  0  0  0  0  0
  1  2  2  0
  2  3  1  0
  3  4  1  0
  4  5  2  0
  5  6  1  0
  6  7  2  0
  7  8  1  0
  8  9  2  0
  9 10  1  0
 10 11  1  0
 11 12  1  0
 12 13  1  0
 13 14  1  0
 14 15  1  0
 15 16  1  0
 16 17  2  0
 17 18  1  0
 18 19  2  0
 19 20  1  0
 20 21  2  0
 21 22  1  0
 22 23  2  0
 23 24  1  0
 24 25  1  0
 25 26  2  0
 26 27  1  0
 27 28  1  0
 28 29  1  0
 29 30  2  0
 30 31  1  0
 31 32  2  0
 32 33  1  0
 33 34  2  0
 34 35  1  0
 35 36  2  0
 36 37  1  0
 37 38  2  0
 19 39  1  0
 39 40  2  0
 14 41  1  0
 41 42  1  0
 10  2  1  0
 42 11  1  0
  9  4  1  0
 40 16  1  0
 32 20  1  0
 38 33  1  0
 30 22  1  0
 28 24  2  0
M  END
>  <Compound_ID>  (98) 
CHEMBL180231

>  <Active>  (98) 
1

>  <Smiles>  (98) 
O=c1[nH]c2ccccc2n1C1CCN(Cc2ccc(-c3nc4cc5cn[nH]c5cc4nc3-c3ccccc3)cc2)CC1

>  <canonical_smi>  (98) 
O=c1[nH]c2ccccc2n1C1CCN(Cc2ccc(-c3nc4cc5cn[nH]c5cc4nc3-c3ccccc3)cc2)CC1

>  <Set>  (98) 
G2 active

>  <Set_type>  (98) 
Train

>  <MW>  (98) 
551.65

>  <HBD>  (98) 
2

>  <HBA>  (98) 
5

>  <NRB>  (98) 
5

>  <NR>  (98) 
8

>  <NAR>  (98) 
7

>  <PSA>  (98) 
95.49

>  <Standard Type>  (98) 
nan

>  <Standard Relation>  (98) 
nan

>  <Standard Units>  (98) 
nan

>  <Standard Value>  (98) 
nan

>  <Assay ChEMBL ID>  (98) 
nan

>  <Assay Description>  (98) 
nan

>  <BAO Label>  (98) 
nan

$$$$

     RDKit          2D

 40 45  0  0  0  0  0  0  0  0999 V2000
  -15.5257    4.9171    0.0000 C   0  0  0  0  0  0  0  0  0  0  0  0
  -14.4110    3.9134    0.0000 C   0  0  0  0  0  0  0  0  0  0  0  0
  -12.9844    4.3769    0.0000 C   0  0  0  0  0  0  0  0  0  0  0  0
  -14.7229    2.4461    0.0000 C   0  0  0  0  0  0  0  0  0  0  0  0
  -13.6082    1.4425    0.0000 C   0  0  0  0  0  0  0  0  0  0  0  0
  -12.1816    1.9060    0.0000 N   0  0  0  0  0  0  0  0  0  0  0  0
  -11.0669    0.9023    0.0000 C   0  0  0  0  0  0  0  0  0  0  0  0
   -9.6403    1.3658    0.0000 C   0  0  0  0  0  0  0  0  0  0  0  0
   -8.5256    0.3621    0.0000 C   0  0  0  0  0  0  0  0  0  0  0  0
   -7.0990    0.8256    0.0000 C   0  0  0  0  0  0  0  0  0  0  0  0
   -6.7871    2.2929    0.0000 C   0  0  0  0  0  0  0  0  0  0  0  0
   -7.9018    3.2966    0.0000 C   0  0  0  0  0  0  0  0  0  0  0  0
   -9.3284    2.8330    0.0000 C   0  0  0  0  0  0  0  0  0  0  0  0
  -11.3787   -0.5649    0.0000 C   0  0  0  0  0  0  0  0  0  0  0  0
  -10.2640   -1.5686    0.0000 C   0  0  0  0  0  0  0  0  0  0  0  0
  -10.5759   -3.0359    0.0000 C   0  0  0  0  0  0  0  0  0  0  0  0
   -9.4612   -4.0396    0.0000 C   0  0  0  0  0  0  0  0  0  0  0  0
   -8.0346   -3.5760    0.0000 C   0  0  0  0  0  0  0  0  0  0  0  0
   -6.9199   -4.5797    0.0000 C   0  0  0  0  0  0  0  0  0  0  0  0
   -5.4933   -4.1162    0.0000 N   0  0  0  0  0  0  0  0  0  0  0  0
   -4.3786   -5.1199    0.0000 C   0  0  0  0  0  0  0  0  0  0  0  0
   -2.9520   -4.6564    0.0000 C   0  0  0  0  0  0  0  0  0  0  0  0
   -2.6401   -3.1891    0.0000 C   0  0  0  0  0  0  0  0  0  0  0  0
   -1.2135   -2.7256    0.0000 N   0  0  0  0  0  0  0  0  0  0  0  0
   -0.0000   -3.6073    0.0000 C   0  0  0  0  0  0  0  0  0  0  0  0
    0.0000   -5.1073    0.0000 O   0  0  0  0  0  0  0  0  0  0  0  0
    1.2135   -2.7256    0.0000 N   0  0  0  0  0  0  0  0  0  0  0  0
    0.7500   -1.2990    0.0000 C   0  0  0  0  0  0  0  0  0  0  0  0
    1.5000    0.0000    0.0000 C   0  0  0  0  0  0  0  0  0  0  0  0
    0.7500    1.2990    0.0000 C   0  0  0  0  0  0  0  0  0  0  0  0
   -0.7500    1.2990    0.0000 C   0  0  0  0  0  0  0  0  0  0  0  0
   -1.5000    0.0000    0.0000 C   0  0  0  0  0  0  0  0  0  0  0  0
   -0.7500   -1.2990    0.0000 C   0  0  0  0  0  0  0  0  0  0  0  0
   -3.7548   -2.1855    0.0000 C   0  0  0  0  0  0  0  0  0  0  0  0
   -5.1814   -2.6490    0.0000 C   0  0  0  0  0  0  0  0  0  0  0  0
   -7.7227   -2.1088    0.0000 C   0  0  0  0  0  0  0  0  0  0  0  0
   -8.8374   -1.1051    0.0000 C   0  0  0  0  0  0  0  0  0  0  0  0
  -12.8053   -1.0285    0.0000 N   0  0  0  0  0  0  0  0  0  0  0  0
  -13.9200   -0.0248    0.0000 C   0  0  0  0  0  0  0  0  0  0  0  0
  -15.3466   -0.4883    0.0000 O   0  0  0  0  0  0  0  0  0  0  0  0
  1  2  1  0
  2  3  1  0
  2  4  1  0
  4  5  1  0
  5  6  2  0
  6  7  1  0
  7  8  1  0
  8  9  2  0
  9 10  1  0
 10 11  2  0
 11 12  1  0
 12 13  2  0
  7 14  2  0
 14 15  1  0
 15 16  2  0
 16 17  1  0
 17 18  2  0
 18 19  1  0
 19 20  1  0
 20 21  1  0
 21 22  1  0
 22 23  1  0
 23 24  1  0
 24 25  1  0
 25 26  1  0
 25 27  2  0
 27 28  1  0
 28 29  2  0
 29 30  1  0
 30 31  2  0
 31 32  1  0
 32 33  2  0
 23 34  1  0
 34 35  1  0
 18 36  1  0
 36 37  2  0
 14 38  1  0
 38 39  2  0
 39 40  1  0
 39  5  1  0
 13  8  1  0
 37 15  1  0
 35 20  1  0
 33 24  1  0
 33 28  1  0
M  END
>  <Compound_ID>  (99) 
CHEMBL178468

>  <Active>  (99) 
1

>  <Smiles>  (99) 
CC(C)Cc1nc(-c2ccccc2)c(-c2ccc(CN3CCC(n4c(O)nc5ccccc54)CC3)cc2)nc1O

>  <canonical_smi>  (99) 
CC(C)Cc1nc(-c2ccccc2)c(-c2ccc(CN3CCC(n4c(O)nc5ccccc54)CC3)cc2)nc1O

>  <Set>  (99) 
G2 active

>  <Set_type>  (99) 
Train

>  <MW>  (99) 
533.68

>  <HBD>  (99) 
2

>  <HBA>  (99) 
6

>  <NRB>  (99) 
7

>  <NR>  (99) 
6

>  <NAR>  (99) 
5

>  <PSA>  (99) 
87.3

>  <Standard Type>  (99) 
nan

>  <Standard Relation>  (99) 
nan

>  <Standard Units>  (99) 
nan

>  <Standard Value>  (99) 
nan

>  <Assay ChEMBL ID>  (99) 
nan

>  <Assay Description>  (99) 
nan

>  <BAO Label>  (99) 
nan

$$$$

     RDKit          2D

 39 44  0  0  0  0  0  0  0  0999 V2000
    3.7500   -1.2990    0.0000 C   0  0  0  0  0  0  0  0  0  0  0  0
    3.0000    0.0000    0.0000 S   0  0  0  0  0  0  0  0  0  0  0  0
    1.5000    0.0000    0.0000 C   0  0  0  0  0  0  0  0  0  0  0  0
    0.7500   -1.2990    0.0000 N   0  0  0  0  0  0  0  0  0  0  0  0
   -0.7500   -1.2990    0.0000 C   0  0  0  0  0  0  0  0  0  0  0  0
   -1.5000    0.0000    0.0000 C   0  0  0  0  0  0  0  0  0  0  0  0
   -3.0000    0.0000    0.0000 C   0  0  0  0  0  0  0  0  0  0  0  0
   -3.7500    1.2990    0.0000 C   0  0  0  0  0  0  0  0  0  0  0  0
   -5.2500    1.2990    0.0000 C   0  0  0  0  0  0  0  0  0  0  0  0
   -6.0000    2.5981    0.0000 C   0  0  0  0  0  0  0  0  0  0  0  0
   -7.5000    2.5981    0.0000 C   0  0  0  0  0  0  0  0  0  0  0  0
   -8.2500    1.2990    0.0000 C   0  0  0  0  0  0  0  0  0  0  0  0
   -7.5000    0.0000    0.0000 C   0  0  0  0  0  0  0  0  0  0  0  0
   -6.0000    0.0000    0.0000 C   0  0  0  0  0  0  0  0  0  0  0  0
   -3.0000    2.5981    0.0000 C   0  0  0  0  0  0  0  0  0  0  0  0
   -3.7500    3.8971    0.0000 C   0  0  0  0  0  0  0  0  0  0  0  0
   -3.0000    5.1962    0.0000 C   0  0  0  0  0  0  0  0  0  0  0  0
   -3.7500    6.4952    0.0000 C   0  0  0  0  0  0  0  0  0  0  0  0
   -5.2500    6.4952    0.0000 C   0  0  0  0  0  0  0  0  0  0  0  0
   -6.0000    7.7942    0.0000 C   0  0  0  0  0  0  0  0  0  0  0  0
   -5.2500    9.0933    0.0000 N   0  0  0  0  0  0  0  0  0  0  0  0
   -6.0000   10.3923    0.0000 C   0  0  0  0  0  0  0  0  0  0  0  0
   -5.2500   11.6913    0.0000 C   0  0  0  0  0  0  0  0  0  0  0  0
   -6.0000   12.9904    0.0000 C   0  0  0  0  0  0  0  0  0  0  0  0
   -7.4918   13.1472    0.0000 N   0  0  0  0  0  0  0  0  0  0  0  0
   -7.8037   14.6144    0.0000 N   0  0  0  0  0  0  0  0  0  0  0  0
   -6.5046   15.3644    0.0000 C   0  0  0  0  0  0  0  0  0  0  0  0
   -6.3478   16.8562    0.0000 C   0  0  0  0  0  0  0  0  0  0  0  0
   -4.9775   17.4663    0.0000 C   0  0  0  0  0  0  0  0  0  0  0  0
   -4.8207   18.9581    0.0000 C   0  0  0  0  0  0  0  0  0  0  0  0
   -6.0342   19.8397    0.0000 C   0  0  0  0  0  0  0  0  0  0  0  0
   -7.4046   19.2296    0.0000 C   0  0  0  0  0  0  0  0  0  0  0  0
   -7.5613   17.7379    0.0000 C   0  0  0  0  0  0  0  0  0  0  0  0
   -5.3899   14.3607    0.0000 N   0  0  0  0  0  0  0  0  0  0  0  0
   -6.0000    5.1962    0.0000 C   0  0  0  0  0  0  0  0  0  0  0  0
   -5.2500    3.8971    0.0000 C   0  0  0  0  0  0  0  0  0  0  0  0
   -1.5000    2.5981    0.0000 N   0  0  0  0  0  0  0  0  0  0  0  0
   -0.7500    1.2990    0.0000 C   0  0  0  0  0  0  0  0  0  0  0  0
    0.7500    1.2990    0.0000 N   0  0  0  0  0  0  0  0  0  0  0  0
  1  2  1  0
  2  3  1  0
  3  4  2  0
  4  5  1  0
  5  6  2  0
  6  7  1  0
  7  8  2  0
  8  9  1  0
  9 10  2  0
 10 11  1  0
 11 12  2  0
 12 13  1  0
 13 14  2  0
  8 15  1  0
 15 16  1  0
 16 17  2  0
 17 18  1  0
 18 19  2  0
 19 20  1  0
 20 21  1  0
 21 22  1  0
 22 23  1  0
 23 24  1  0
 24 25  2  0
 25 26  1  0
 26 27  1  0
 27 28  1  0
 28 29  2  0
 29 30  1  0
 30 31  2  0
 31 32  1  0
 32 33  2  0
 27 34  2  0
 19 35  1  0
 35 36  2  0
 15 37  2  0
 37 38  1  0
 38 39  2  0
 39  3  1  0
 38  6  1  0
 14  9  1  0
 36 16  1  0
 34 24  1  0
 33 28  1  0
M  END
>  <Compound_ID>  (100) 
CHEMBL252261

>  <Active>  (100) 
1

>  <Smiles>  (100) 
CSc1ncc2cc(-c3ccccc3)c(-c3ccc(CNCCc4n[nH]c(-c5ccccc5)n4)cc3)nc2n1

>  <canonical_smi>  (100) 
CSc1ncc2cc(-c3ccccc3)c(-c3ccc(CNCCc4n[nH]c(-c5ccccc5)n4)cc3)nc2n1

>  <Set>  (100) 
G2 active

>  <Set_type>  (100) 
Train

>  <MW>  (100) 
529.67

>  <HBD>  (100) 
2

>  <HBA>  (100) 
7

>  <NRB>  (100) 
9

>  <NR>  (100) 
6

>  <NAR>  (100) 
6

>  <PSA>  (100) 
92.27

>  <Standard Type>  (100) 
nan

>  <Standard Relation>  (100) 
nan

>  <Standard Units>  (100) 
nan

>  <Standard Value>  (100) 
nan

>  <Assay ChEMBL ID>  (100) 
nan

>  <Assay Description>  (100) 
nan

>  <BAO Label>  (100) 
nan

$$$$

     RDKit          2D

 40 46  0  0  0  0  0  0  0  0999 V2000
   -2.6401   -3.1891    0.0000 C   0  0  0  0  0  0  0  0  0  0  0  0
   -1.2135   -2.7256    0.0000 N   0  0  0  0  0  0  0  0  0  0  0  0
   -0.0000   -3.6073    0.0000 N   0  0  0  0  0  0  0  0  0  0  0  0
    1.2135   -2.7256    0.0000 C   0  0  0  0  0  0  0  0  0  0  0  0
    2.6401   -3.1891    0.0000 N   0  0  0  0  0  0  0  0  0  0  0  0
    0.7500   -1.2990    0.0000 C   0  0  0  0  0  0  0  0  0  0  0  0
    1.5000    0.0000    0.0000 C   0  0  0  0  0  0  0  0  0  0  0  0
    0.7500    1.2990    0.0000 C   0  0  0  0  0  0  0  0  0  0  0  0
    1.5000    2.5981    0.0000 C   0  0  0  0  0  0  0  0  0  0  0  0
    3.0000    2.5981    0.0000 C   0  0  0  0  0  0  0  0  0  0  0  0
    3.7500    3.8971    0.0000 C   0  0  0  0  0  0  0  0  0  0  0  0
    3.0000    5.1962    0.0000 C   0  0  0  0  0  0  0  0  0  0  0  0
    1.5000    5.1962    0.0000 C   0  0  0  0  0  0  0  0  0  0  0  0
    0.7500    3.8971    0.0000 C   0  0  0  0  0  0  0  0  0  0  0  0
   -0.7500    1.2990    0.0000 C   0  0  0  0  0  0  0  0  0  0  0  0
   -1.5000    2.5981    0.0000 C   0  0  0  0  0  0  0  0  0  0  0  0
   -0.7500    3.8971    0.0000 C   0  0  0  0  0  0  0  0  0  0  0  0
   -1.5000    5.1962    0.0000 C   0  0  0  0  0  0  0  0  0  0  0  0
   -3.0000    5.1962    0.0000 C   0  0  0  0  0  0  0  0  0  0  0  0
   -3.7500    6.4952    0.0000 C   0  0  0  0  0  0  0  0  0  0  0  0
   -3.0000    7.7942    0.0000 N   0  0  0  0  0  0  0  0  0  0  0  0
   -1.5000    7.7942    0.0000 C   0  0  0  0  0  0  0  0  0  0  0  0
   -0.7500    9.0933    0.0000 C   0  0  0  0  0  0  0  0  0  0  0  0
   -1.5000   10.3923    0.0000 C   0  0  0  0  0  0  0  0  0  0  0  0
   -0.7500   11.6913    0.0000 N   0  0  0  0  0  0  0  0  0  0  0  0
    0.7418   11.8481    0.0000 C   0  0  0  0  0  0  0  0  0  0  0  0
    1.7455   10.7334    0.0000 O   0  0  0  0  0  0  0  0  0  0  0  0
    1.0537   13.3154    0.0000 N   0  0  0  0  0  0  0  0  0  0  0  0
   -0.2454   14.0654    0.0000 C   0  0  0  0  0  0  0  0  0  0  0  0
   -0.5573   15.5326    0.0000 C   0  0  0  0  0  0  0  0  0  0  0  0
   -1.9838   15.9961    0.0000 C   0  0  0  0  0  0  0  0  0  0  0  0
   -3.0986   14.9924    0.0000 C   0  0  0  0  0  0  0  0  0  0  0  0
   -2.7867   13.5252    0.0000 C   0  0  0  0  0  0  0  0  0  0  0  0
   -1.3601   13.0617    0.0000 C   0  0  0  0  0  0  0  0  0  0  0  0
   -3.0000   10.3923    0.0000 C   0  0  0  0  0  0  0  0  0  0  0  0
   -3.7500    9.0933    0.0000 C   0  0  0  0  0  0  0  0  0  0  0  0
   -3.7500    3.8971    0.0000 C   0  0  0  0  0  0  0  0  0  0  0  0
   -3.0000    2.5981    0.0000 C   0  0  0  0  0  0  0  0  0  0  0  0
   -1.5000    0.0000    0.0000 N   0  0  0  0  0  0  0  0  0  0  0  0
   -0.7500   -1.2990    0.0000 C   0  0  0  0  0  0  0  0  0  0  0  0
  1  2  1  0
  2  3  1  0
  3  4  2  0
  4  5  1  0
  4  6  1  0
  6  7  2  0
  7  8  1  0
  8  9  1  0
  9 10  2  0
 10 11  1  0
 11 12  2  0
 12 13  1  0
 13 14  2  0
  8 15  2  0
 15 16  1  0
 16 17  2  0
 17 18  1  0
 18 19  2  0
 19 20  1  0
 20 21  1  0
 21 22  1  0
 22 23  1  0
 23 24  1  0
 24 25  1  0
 25 26  1  0
 26 27  2  0
 26 28  1  0
 28 29  1  0
 29 30  2  0
 30 31  1  0
 31 32  2  0
 32 33  1  0
 33 34  2  0
 24 35  1  0
 35 36  1  0
 19 37  1  0
 37 38  2  0
 15 39  1  0
 39 40  2  0
 40  2  1  0
 40  6  1  0
 14  9  1  0
 38 16  1  0
 36 21  1  0
 34 25  1  0
 34 29  1  0
M  END
>  <Compound_ID>  (101) 
CHEMBL401622

>  <Active>  (101) 
1

>  <Smiles>  (101) 
Cn1nc(N)c2cc(-c3ccccc3)c(-c3ccc(CN4CCC(n5c(=O)[nH]c6ccccc65)CC4)cc3)nc21

>  <canonical_smi>  (101) 
Cn1nc(N)c2cc(-c3ccccc3)c(-c3ccc(CN4CCC(n5c(=O)[nH]c6ccccc65)CC4)cc3)nc21

>  <Set>  (101) 
G2 active

>  <Set_type>  (101) 
Train

>  <MW>  (101) 
529.65

>  <HBD>  (101) 
2

>  <HBA>  (101) 
5

>  <NRB>  (101) 
5

>  <NR>  (101) 
7

>  <NAR>  (101) 
6

>  <PSA>  (101) 
97.76

>  <Standard Type>  (101) 
nan

>  <Standard Relation>  (101) 
nan

>  <Standard Units>  (101) 
nan

>  <Standard Value>  (101) 
nan

>  <Assay ChEMBL ID>  (101) 
nan

>  <Assay Description>  (101) 
nan

>  <BAO Label>  (101) 
nan

$$$$

     RDKit          2D

 40 46  0  0  0  0  0  0  0  0999 V2000
    3.0000    0.0000    0.0000 N   0  0  0  0  0  0  0  0  0  0  0  0
    1.5000    0.0000    0.0000 C   0  0  0  0  0  0  0  0  0  0  0  0
    0.7500   -1.2990    0.0000 N   0  0  0  0  0  0  0  0  0  0  0  0
   -0.7500   -1.2990    0.0000 C   0  0  0  0  0  0  0  0  0  0  0  0
   -1.5000    0.0000    0.0000 N   0  0  0  0  0  0  0  0  0  0  0  0
   -0.7500    1.2990    0.0000 C   0  0  0  0  0  0  0  0  0  0  0  0
   -1.5000    2.5981    0.0000 N   0  0  0  0  0  0  0  0  0  0  0  0
   -0.7500    3.8971    0.0000 C   0  0  0  0  0  0  0  0  0  0  0  0
   -1.5000    5.1962    0.0000 C   0  0  0  0  0  0  0  0  0  0  0  0
   -0.7500    6.4952    0.0000 C   0  0  0  0  0  0  0  0  0  0  0  0
   -1.5000    7.7942    0.0000 C   0  0  0  0  0  0  0  0  0  0  0  0
   -3.0000    7.7942    0.0000 C   0  0  0  0  0  0  0  0  0  0  0  0
   -3.7500    9.0933    0.0000 C   0  0  0  0  0  0  0  0  0  0  0  0
   -3.0000   10.3923    0.0000 N   0  0  0  0  0  0  0  0  0  0  0  0
   -1.5000   10.3923    0.0000 C   0  0  0  0  0  0  0  0  0  0  0  0
   -0.7500   11.6913    0.0000 C   0  0  0  0  0  0  0  0  0  0  0  0
   -1.5000   12.9904    0.0000 C   0  0  0  0  0  0  0  0  0  0  0  0
   -0.7500   14.2894    0.0000 N   0  0  0  0  0  0  0  0  0  0  0  0
    0.7418   14.4462    0.0000 C   0  0  0  0  0  0  0  0  0  0  0  0
    1.0537   15.9134    0.0000 N   0  0  0  0  0  0  0  0  0  0  0  0
   -0.2454   16.6634    0.0000 C   0  0  0  0  0  0  0  0  0  0  0  0
   -0.5573   18.1307    0.0000 C   0  0  0  0  0  0  0  0  0  0  0  0
    0.5575   19.1344    0.0000 N   0  0  0  0  0  0  0  0  0  0  0  0
   -1.9838   18.5942    0.0000 N   0  0  0  0  0  0  0  0  0  0  0  0
   -3.0986   17.5905    0.0000 C   0  0  0  0  0  0  0  0  0  0  0  0
   -2.7867   16.1233    0.0000 N   0  0  0  0  0  0  0  0  0  0  0  0
   -1.3601   15.6597    0.0000 C   0  0  0  0  0  0  0  0  0  0  0  0
   -3.0000   12.9904    0.0000 C   0  0  0  0  0  0  0  0  0  0  0  0
   -3.7500   11.6913    0.0000 C   0  0  0  0  0  0  0  0  0  0  0  0
   -3.7500    6.4952    0.0000 C   0  0  0  0  0  0  0  0  0  0  0  0
   -3.0000    5.1962    0.0000 C   0  0  0  0  0  0  0  0  0  0  0  0
    0.7500    3.8971    0.0000 C   0  0  0  0  0  0  0  0  0  0  0  0
    1.5000    5.1962    0.0000 C   0  0  0  0  0  0  0  0  0  0  0  0
    3.0000    5.1962    0.0000 C   0  0  0  0  0  0  0  0  0  0  0  0
    3.7500    6.4952    0.0000 C   0  0  0  0  0  0  0  0  0  0  0  0
    3.0000    7.7942    0.0000 C   0  0  0  0  0  0  0  0  0  0  0  0
    1.5000    7.7942    0.0000 C   0  0  0  0  0  0  0  0  0  0  0  0
    0.7500    6.4952    0.0000 C   0  0  0  0  0  0  0  0  0  0  0  0
    1.5000    2.5981    0.0000 C   0  0  0  0  0  0  0  0  0  0  0  0
    0.7500    1.2990    0.0000 C   0  0  0  0  0  0  0  0  0  0  0  0
  1  2  1  0
  2  3  2  0
  3  4  1  0
  4  5  2  0
  5  6  1  0
  6  7  2  0
  7  8  1  0
  8  9  1  0
  9 10  2  0
 10 11  1  0
 11 12  2  0
 12 13  1  0
 13 14  1  0
 14 15  1  0
 15 16  1  0
 16 17  1  0
 17 18  1  0
 18 19  1  0
 19 20  2  0
 20 21  1  0
 21 22  2  0
 22 23  1  0
 22 24  1  0
 24 25  2  0
 25 26  1  0
 26 27  2  0
 17 28  1  0
 28 29  1  0
 12 30  1  0
 30 31  2  0
  8 32  2  0
 32 33  1  0
 33 34  2  0
 34 35  1  0
 35 36  2  0
 36 37  1  0
 37 38  2  0
 32 39  1  0
 39 40  2  0
 40  2  1  0
 40  6  1  0
 31  9  1  0
 38 33  1  0
 29 14  1  0
 27 18  1  0
 27 21  1  0
M  END
>  <Compound_ID>  (102) 
CHEMBL255360

>  <Active>  (102) 
1

>  <Smiles>  (102) 
Nc1ncnc2nc(-c3ccc(CN4CCC(n5cnc6c(N)ncnc65)CC4)cc3)c(-c3ccccc3)cc12

>  <canonical_smi>  (102) 
Nc1ncnc2nc(-c3ccc(CN4CCC(n5cnc6c(N)ncnc65)CC4)cc3)c(-c3ccccc3)cc12

>  <Set>  (102) 
G2 active

>  <Set_type>  (102) 
Train

>  <MW>  (102) 
528.62

>  <HBD>  (102) 
2

>  <HBA>  (102) 
9

>  <NRB>  (102) 
5

>  <NR>  (102) 
7

>  <NAR>  (102) 
6

>  <PSA>  (102) 
137.55

>  <Standard Type>  (102) 
nan

>  <Standard Relation>  (102) 
nan

>  <Standard Units>  (102) 
nan

>  <Standard Value>  (102) 
nan

>  <Assay ChEMBL ID>  (102) 
nan

>  <Assay Description>  (102) 
nan

>  <BAO Label>  (102) 
nan

$$$$

     RDKit          2D

 40 46  0  0  0  0  0  0  0  0999 V2000
    3.0000   -7.7942    0.0000 C   0  0  0  0  0  0  0  0  0  0  0  0
    1.5000   -7.7942    0.0000 C   0  0  0  0  0  0  0  0  0  0  0  0
    0.7500   -6.4952    0.0000 C   0  0  0  0  0  0  0  0  0  0  0  0
    1.5000   -5.1962    0.0000 C   0  0  0  0  0  0  0  0  0  0  0  0
    0.7500   -3.8971    0.0000 C   0  0  0  0  0  0  0  0  0  0  0  0
    1.5000   -2.5981    0.0000 C   0  0  0  0  0  0  0  0  0  0  0  0
    0.7500   -1.2990    0.0000 C   0  0  0  0  0  0  0  0  0  0  0  0
    1.5000    0.0000    0.0000 C   0  0  0  0  0  0  0  0  0  0  0  0
    0.7500    1.2990    0.0000 C   0  0  0  0  0  0  0  0  0  0  0  0
   -0.7500    1.2990    0.0000 C   0  0  0  0  0  0  0  0  0  0  0  0
   -1.5000    0.0000    0.0000 N   0  0  0  0  0  0  0  0  0  0  0  0
   -0.7500   -1.2990    0.0000 C   0  0  0  0  0  0  0  0  0  0  0  0
   -1.5000   -2.5981    0.0000 N   0  0  0  0  0  0  0  0  0  0  0  0
   -0.7500   -3.8971    0.0000 C   0  0  0  0  0  0  0  0  0  0  0  0
   -1.5000   -5.1962    0.0000 C   0  0  0  0  0  0  0  0  0  0  0  0
   -3.0000   -5.1962    0.0000 C   0  0  0  0  0  0  0  0  0  0  0  0
   -3.7500   -6.4952    0.0000 C   0  0  0  0  0  0  0  0  0  0  0  0
   -3.0000   -7.7942    0.0000 C   0  0  0  0  0  0  0  0  0  0  0  0
   -3.7500   -9.0933    0.0000 C   0  0  0  0  0  0  0  0  0  0  0  0
   -5.2500   -9.0933    0.0000 N   0  0  0  0  0  0  0  0  0  0  0  0
   -6.0000   -7.7942    0.0000 C   0  0  0  0  0  0  0  0  0  0  0  0
   -7.5000   -7.7942    0.0000 C   0  0  0  0  0  0  0  0  0  0  0  0
   -8.2500   -9.0933    0.0000 C   0  0  0  0  0  0  0  0  0  0  0  0
   -9.7500   -9.0933    0.0000 C   0  0  0  0  0  0  0  0  0  0  0  0
  -10.6317  -10.3068    0.0000 C   0  0  0  0  0  0  0  0  0  0  0  0
  -12.0583   -9.8433    0.0000 C   0  0  0  0  0  0  0  0  0  0  0  0
  -13.2718  -10.7249    0.0000 C   0  0  0  0  0  0  0  0  0  0  0  0
  -14.6421  -10.1148    0.0000 C   0  0  0  0  0  0  0  0  0  0  0  0
  -15.8556  -10.9965    0.0000 C   0  0  0  0  0  0  0  0  0  0  0  0
  -15.6988  -12.4883    0.0000 C   0  0  0  0  0  0  0  0  0  0  0  0
  -14.3285  -13.0984    0.0000 N   0  0  0  0  0  0  0  0  0  0  0  0
  -13.1150  -12.2167    0.0000 C   0  0  0  0  0  0  0  0  0  0  0  0
  -12.0583   -8.3433    0.0000 N   0  0  0  0  0  0  0  0  0  0  0  0
  -10.6317   -7.8797    0.0000 N   0  0  0  0  0  0  0  0  0  0  0  0
   -7.5000  -10.3923    0.0000 C   0  0  0  0  0  0  0  0  0  0  0  0
   -6.0000  -10.3923    0.0000 C   0  0  0  0  0  0  0  0  0  0  0  0
   -1.5000   -7.7942    0.0000 C   0  0  0  0  0  0  0  0  0  0  0  0
   -0.7500   -6.4952    0.0000 C   0  0  0  0  0  0  0  0  0  0  0  0
    3.0000   -5.1962    0.0000 C   0  0  0  0  0  0  0  0  0  0  0  0
    3.7500   -6.4952    0.0000 C   0  0  0  0  0  0  0  0  0  0  0  0
  1  2  2  0
  2  3  1  0
  3  4  2  0
  4  5  1  0
  5  6  2  0
  6  7  1  0
  7  8  2  0
  8  9  1  0
  9 10  2  0
 10 11  1  0
 11 12  2  0
 12 13  1  0
 13 14  2  0
 14 15  1  0
 15 16  2  0
 16 17  1  0
 17 18  2  0
 18 19  1  0
 19 20  1  0
 20 21  1  0
 21 22  1  0
 22 23  1  0
 23 24  1  0
 24 25  1  0
 25 26  2  0
 26 27  1  0
 27 28  2  0
 28 29  1  0
 29 30  2  0
 30 31  1  0
 31 32  2  0
 26 33  1  0
 33 34  1  0
 23 35  1  0
 35 36  1  0
 18 37  1  0
 37 38  2  0
  4 39  1  0
 39 40  2  0
 40  1  1  0
 14  5  1  0
 38 15  1  0
 12  7  1  0
 36 20  1  0
 34 24  2  0
 32 27  1  0
M  END
>  <Compound_ID>  (103) 
CHEMBL407733

>  <Active>  (103) 
1

>  <Smiles>  (103) 
c1ccc(-c2cc3cccnc3nc2-c2ccc(CN3CCC(c4cc(-c5cccnc5)[nH]n4)CC3)cc2)cc1

>  <canonical_smi>  (103) 
c1ccc(-c2cc3cccnc3nc2-c2ccc(CN3CCC(c4cc(-c5cccnc5)[nH]n4)CC3)cc2)cc1

>  <Set>  (103) 
G2 active

>  <Set_type>  (103) 
Train

>  <MW>  (103) 
522.66

>  <HBD>  (103) 
1

>  <HBA>  (103) 
5

>  <NRB>  (103) 
6

>  <NR>  (103) 
7

>  <NAR>  (103) 
6

>  <PSA>  (103) 
70.59

>  <Standard Type>  (103) 
nan

>  <Standard Relation>  (103) 
nan

>  <Standard Units>  (103) 
nan

>  <Standard Value>  (103) 
nan

>  <Assay ChEMBL ID>  (103) 
nan

>  <Assay Description>  (103) 
nan

>  <BAO Label>  (103) 
nan

$$$$

     RDKit          2D

 34 38  0  0  0  0  0  0  0  0999 V2000
    3.7500   -1.2990    0.0000 C   0  0  0  0  0  0  0  0  0  0  0  0
    3.0000    0.0000    0.0000 S   0  0  0  0  0  0  0  0  0  0  0  0
    1.5000    0.0000    0.0000 C   0  0  0  0  0  0  0  0  0  0  0  0
    0.7500   -1.2990    0.0000 N   0  0  0  0  0  0  0  0  0  0  0  0
   -0.7500   -1.2990    0.0000 C   0  0  0  0  0  0  0  0  0  0  0  0
   -1.5000    0.0000    0.0000 C   0  0  0  0  0  0  0  0  0  0  0  0
   -3.0000    0.0000    0.0000 C   0  0  0  0  0  0  0  0  0  0  0  0
   -3.7500    1.2990    0.0000 C   0  0  0  0  0  0  0  0  0  0  0  0
   -5.2500    1.2990    0.0000 C   0  0  0  0  0  0  0  0  0  0  0  0
   -6.0000    2.5981    0.0000 C   0  0  0  0  0  0  0  0  0  0  0  0
   -7.5000    2.5981    0.0000 C   0  0  0  0  0  0  0  0  0  0  0  0
   -8.2500    1.2990    0.0000 C   0  0  0  0  0  0  0  0  0  0  0  0
   -7.5000    0.0000    0.0000 C   0  0  0  0  0  0  0  0  0  0  0  0
   -6.0000    0.0000    0.0000 C   0  0  0  0  0  0  0  0  0  0  0  0
   -3.0000    2.5981    0.0000 C   0  0  0  0  0  0  0  0  0  0  0  0
   -3.7500    3.8971    0.0000 C   0  0  0  0  0  0  0  0  0  0  0  0
   -3.0000    5.1962    0.0000 C   0  0  0  0  0  0  0  0  0  0  0  0
   -3.7500    6.4952    0.0000 C   0  0  0  0  0  0  0  0  0  0  0  0
   -5.2500    6.4952    0.0000 C   0  0  0  0  0  0  0  0  0  0  0  0
   -6.0000    7.7942    0.0000 C   0  0  0  0  0  0  0  0  0  0  0  0
   -5.2500    9.0933    0.0000 N   0  0  0  0  0  0  0  0  0  0  0  0
   -3.7500    9.0933    0.0000 C   0  0  0  0  0  0  0  0  0  0  0  0
   -3.0000   10.3923    0.0000 C   0  0  0  0  0  0  0  0  0  0  0  0
   -3.7500   11.6913    0.0000 C   0  0  0  0  0  0  0  0  0  0  0  0
   -3.0000   12.9904    0.0000 C   0  0  0  0  0  0  0  0  0  0  0  0
   -1.5000   12.9904    0.0000 N   0  0  0  0  0  0  0  0  0  0  0  0
   -3.7500   14.2894    0.0000 O   0  0  0  0  0  0  0  0  0  0  0  0
   -5.2500   11.6913    0.0000 C   0  0  0  0  0  0  0  0  0  0  0  0
   -6.0000   10.3923    0.0000 C   0  0  0  0  0  0  0  0  0  0  0  0
   -6.0000    5.1962    0.0000 C   0  0  0  0  0  0  0  0  0  0  0  0
   -5.2500    3.8971    0.0000 C   0  0  0  0  0  0  0  0  0  0  0  0
   -1.5000    2.5981    0.0000 N   0  0  0  0  0  0  0  0  0  0  0  0
   -0.7500    1.2990    0.0000 C   0  0  0  0  0  0  0  0  0  0  0  0
    0.7500    1.2990    0.0000 N   0  0  0  0  0  0  0  0  0  0  0  0
  1  2  1  0
  2  3  1  0
  3  4  2  0
  4  5  1  0
  5  6  2  0
  6  7  1  0
  7  8  2  0
  8  9  1  0
  9 10  2  0
 10 11  1  0
 11 12  2  0
 12 13  1  0
 13 14  2  0
  8 15  1  0
 15 16  1  0
 16 17  2  0
 17 18  1  0
 18 19  2  0
 19 20  1  0
 20 21  1  0
 21 22  1  0
 22 23  1  0
 23 24  1  0
 24 25  1  0
 25 26  1  0
 25 27  2  0
 24 28  1  0
 28 29  1  0
 19 30  1  0
 30 31  2  0
 15 32  2  0
 32 33  1  0
 33 34  2  0
 34  3  1  0
 33  6  1  0
 14  9  1  0
 31 16  1  0
 29 21  1  0
M  END
>  <Compound_ID>  (104) 
CHEMBL252457

>  <Active>  (104) 
1

>  <Smiles>  (104) 
CSc1ncc2cc(-c3ccccc3)c(-c3ccc(CN4CCC(C(N)=O)CC4)cc3)nc2n1

>  <canonical_smi>  (104) 
CSc1ncc2cc(-c3ccccc3)c(-c3ccc(CN4CCC(C(N)=O)CC4)cc3)nc2n1

>  <Set>  (104) 
G2 active

>  <Set_type>  (104) 
Train

>  <MW>  (104) 
469.61

>  <HBD>  (104) 
1

>  <HBA>  (104) 
6

>  <NRB>  (104) 
6

>  <NR>  (104) 
5

>  <NAR>  (104) 
4

>  <PSA>  (104) 
85.0

>  <Standard Type>  (104) 
nan

>  <Standard Relation>  (104) 
nan

>  <Standard Units>  (104) 
nan

>  <Standard Value>  (104) 
nan

>  <Assay ChEMBL ID>  (104) 
nan

>  <Assay Description>  (104) 
nan

>  <BAO Label>  (104) 
nan

$$$$

     RDKit          2D

 29 32  0  0  0  0  0  0  0  0999 V2000
   -9.0638   -4.9905    0.0000 N   0  0  0  0  0  0  0  0  0  0  0  0
   -8.1821   -3.7770    0.0000 C   0  0  0  0  0  0  0  0  0  0  0  0
   -8.7923   -2.4067    0.0000 C   0  0  0  0  0  0  0  0  0  0  0  0
  -10.2840   -2.2499    0.0000 C   0  0  0  0  0  0  0  0  0  0  0  0
  -11.1657   -3.4634    0.0000 C   0  0  0  0  0  0  0  0  0  0  0  0
  -12.6575   -3.3066    0.0000 C   0  0  0  0  0  0  0  0  0  0  0  0
  -13.5392   -4.5201    0.0000 C   0  0  0  0  0  0  0  0  0  0  0  0
  -12.9291   -5.8905    0.0000 C   0  0  0  0  0  0  0  0  0  0  0  0
  -11.4373   -6.0472    0.0000 C   0  0  0  0  0  0  0  0  0  0  0  0
  -10.8272   -7.4176    0.0000 F   0  0  0  0  0  0  0  0  0  0  0  0
  -10.5556   -4.8337    0.0000 C   0  0  0  0  0  0  0  0  0  0  0  0
   -7.9106   -1.1931    0.0000 N   0  0  0  0  0  0  0  0  0  0  0  0
   -6.4188   -1.3499    0.0000 C   0  0  0  0  0  0  0  0  0  0  0  0
   -5.8087   -2.7203    0.0000 O   0  0  0  0  0  0  0  0  0  0  0  0
   -5.5371   -0.1364    0.0000 C   0  0  0  0  0  0  0  0  0  0  0  0
   -6.0006    1.2902    0.0000 C   0  0  0  0  0  0  0  0  0  0  0  0
   -4.7871    2.1718    0.0000 C   0  0  0  0  0  0  0  0  0  0  0  0
   -4.7871    3.6718    0.0000 Br  0  0  0  0  0  0  0  0  0  0  0  0
   -3.5736    1.2902    0.0000 C   0  0  0  0  0  0  0  0  0  0  0  0
   -2.1470    1.7537    0.0000 C   0  0  0  0  0  0  0  0  0  0  0  0
   -1.8351    3.2209    0.0000 C   0  0  0  0  0  0  0  0  0  0  0  0
   -0.4086    3.6844    0.0000 C   0  0  0  0  0  0  0  0  0  0  0  0
    0.7062    2.6807    0.0000 N   0  0  0  0  0  0  0  0  0  0  0  0
    0.3943    1.2135    0.0000 C   0  0  0  0  0  0  0  0  0  0  0  0
    1.2760    0.0000    0.0000 N   0  0  0  0  0  0  0  0  0  0  0  0
    0.3943   -1.2135    0.0000 C   0  0  0  0  0  0  0  0  0  0  0  0
   -1.0323   -0.7500    0.0000 C   0  0  0  0  0  0  0  0  0  0  0  0
   -1.0323    0.7500    0.0000 C   0  0  0  0  0  0  0  0  0  0  0  0
   -4.0371   -0.1364    0.0000 S   0  0  0  0  0  0  0  0  0  0  0  0
  1  2  1  0
  3  2  1  6
  3  4  1  0
  4  5  1  0
  5  6  2  0
  6  7  1  0
  7  8  2  0
  8  9  1  0
  9 10  1  0
  9 11  2  0
  3 12  1  0
 12 13  1  0
 13 14  2  0
 13 15  1  0
 15 16  2  0
 16 17  1  0
 17 18  1  0
 17 19  2  0
 19 20  1  0
 20 21  2  0
 21 22  1  0
 22 23  2  0
 23 24  1  0
 24 25  1  0
 25 26  1  0
 26 27  2  0
 27 28  1  0
 19 29  1  0
 11  5  1  0
 29 15  1  0
 28 20  1  0
 28 24  2  0
M  END
>  <Compound_ID>  (105) 
CHEMBL523586

>  <Active>  (105) 
1

>  <Smiles>  (105) 
NC[C@H](Cc1cccc(F)c1)NC(=O)c1cc(Br)c(-c2ccnc3[nH]ccc23)s1

>  <canonical_smi>  (105) 
NC[C@H](Cc1cccc(F)c1)NC(=O)c1cc(Br)c(-c2ccnc3[nH]ccc23)s1

>  <Set>  (105) 
G2 active

>  <Set_type>  (105) 
Test

>  <MW>  (105) 
473.37

>  <HBD>  (105) 
3

>  <HBA>  (105) 
3

>  <NRB>  (105) 
6

>  <NR>  (105) 
4

>  <NAR>  (105) 
4

>  <PSA>  (105) 
83.8

>  <Standard Type>  (105) 
nan

>  <Standard Relation>  (105) 
nan

>  <Standard Units>  (105) 
nan

>  <Standard Value>  (105) 
nan

>  <Assay ChEMBL ID>  (105) 
nan

>  <Assay Description>  (105) 
nan

>  <BAO Label>  (105) 
nan

$$$$

     RDKit          2D

 31 34  0  0  0  0  0  0  0  0999 V2000
   -3.7548   -2.1855    0.0000 C   0  0  0  0  0  0  0  0  0  0  0  0
   -2.6401   -3.1891    0.0000 C   0  0  0  0  0  0  0  0  0  0  0  0
   -1.2135   -2.7256    0.0000 N   0  0  0  0  0  0  0  0  0  0  0  0
   -0.0000   -3.6073    0.0000 C   0  0  0  0  0  0  0  0  0  0  0  0
   -0.0000   -5.1073    0.0000 C   0  0  0  0  0  0  0  0  0  0  0  0
    1.2135   -5.9890    0.0000 N   0  0  0  0  0  0  0  0  0  0  0  0
    0.7500   -7.4156    0.0000 O   0  0  0  0  0  0  0  0  0  0  0  0
   -0.7500   -7.4156    0.0000 N   0  0  0  0  0  0  0  0  0  0  0  0
   -1.2135   -5.9890    0.0000 C   0  0  0  0  0  0  0  0  0  0  0  0
   -2.6401   -5.5255    0.0000 N   0  0  0  0  0  0  0  0  0  0  0  0
    1.2135   -2.7256    0.0000 N   0  0  0  0  0  0  0  0  0  0  0  0
    0.7500   -1.2990    0.0000 C   0  0  0  0  0  0  0  0  0  0  0  0
    1.5000    0.0000    0.0000 C   0  0  0  0  0  0  0  0  0  0  0  0
    3.0000    0.0000    0.0000 C   0  0  0  0  0  0  0  0  0  0  0  0
    4.5000    0.0000    0.0000 C   0  0  0  0  0  0  0  0  0  0  0  0
    6.0000    0.0000    0.0000 C   0  0  0  0  0  0  0  0  0  0  0  0
    6.0000   -1.5000    0.0000 C   0  0  0  0  0  0  0  0  0  0  0  0
    6.0000    1.5000    0.0000 C   0  0  0  0  0  0  0  0  0  0  0  0
    7.5000    0.0000    0.0000 O   0  0  0  0  0  0  0  0  0  0  0  0
    0.7500    1.2990    0.0000 N   0  0  0  0  0  0  0  0  0  0  0  0
   -0.7500    1.2990    0.0000 C   0  0  0  0  0  0  0  0  0  0  0  0
   -1.5000    0.0000    0.0000 C   0  0  0  0  0  0  0  0  0  0  0  0
   -3.0000    0.0000    0.0000 O   0  0  0  0  0  0  0  0  0  0  0  0
   -3.7500    1.2990    0.0000 C   0  0  0  0  0  0  0  0  0  0  0  0
   -5.2500    1.2990    0.0000 C   0  0  0  0  0  0  0  0  0  0  0  0
   -6.0000    2.5981    0.0000 C   0  0  0  0  0  0  0  0  0  0  0  0
   -7.5000    2.5981    0.0000 C   0  0  0  0  0  0  0  0  0  0  0  0
   -8.2500    1.2990    0.0000 C   0  0  0  0  0  0  0  0  0  0  0  0
   -7.5000    0.0000    0.0000 N   0  0  0  0  0  0  0  0  0  0  0  0
   -6.0000    0.0000    0.0000 C   0  0  0  0  0  0  0  0  0  0  0  0
   -0.7500   -1.2990    0.0000 C   0  0  0  0  0  0  0  0  0  0  0  0
  1  2  1  0
  2  3  1  0
  3  4  1  0
  4  5  1  0
  5  6  2  0
  6  7  1  0
  7  8  1  0
  8  9  2  0
  9 10  1  0
  4 11  2  0
 11 12  1  0
 12 13  2  0
 13 14  1  0
 14 15  3  0
 15 16  1  0
 16 17  1  0
 16 18  1  0
 16 19  1  0
 13 20  1  0
 20 21  2  0
 21 22  1  0
 22 23  1  0
 23 24  1  0
 25 24  1  6
 25 26  1  0
 26 27  1  0
 27 28  1  0
 28 29  1  0
 29 30  1  0
 22 31  2  0
 31  3  1  0
  9  5  1  0
 31 12  1  0
 30 25  1  0
M  END
>  <Compound_ID>  (106) 
CHEMBL494089

>  <Active>  (106) 
1

>  <Smiles>  (106) 
CCn1c(-c2nonc2N)nc2c(C#CC(C)(C)O)ncc(OC[C@H]3CCCNC3)c21

>  <canonical_smi>  (106) 
CCn1c(-c2nonc2N)nc2c(C#CC(C)(C)O)ncc(OC[C@H]3CCCNC3)c21

>  <Set>  (106) 
G2 active

>  <Set_type>  (106) 
Test

>  <MW>  (106) 
425.49

>  <HBD>  (106) 
3

>  <HBA>  (106) 
9

>  <NRB>  (106) 
5

>  <NR>  (106) 
4

>  <NAR>  (106) 
3

>  <PSA>  (106) 
137.14

>  <Standard Type>  (106) 
nan

>  <Standard Relation>  (106) 
nan

>  <Standard Units>  (106) 
nan

>  <Standard Value>  (106) 
nan

>  <Assay ChEMBL ID>  (106) 
nan

>  <Assay Description>  (106) 
nan

>  <BAO Label>  (106) 
nan

$$$$

     RDKit          2D

 35 40  0  0  0  0  0  0  0  0999 V2000
   -2.6401   -3.1891    0.0000 C   0  0  0  0  0  0  0  0  0  0  0  0
   -1.2135   -2.7256    0.0000 C   0  0  0  0  0  0  0  0  0  0  0  0
   -0.0000   -3.6073    0.0000 N   0  0  0  0  0  0  0  0  0  0  0  0
    1.2135   -2.7256    0.0000 N   0  0  0  0  0  0  0  0  0  0  0  0
    0.7500   -1.2990    0.0000 C   0  0  0  0  0  0  0  0  0  0  0  0
    1.5000    0.0000    0.0000 C   0  0  0  0  0  0  0  0  0  0  0  0
    0.7500    1.2990    0.0000 N   0  0  0  0  0  0  0  0  0  0  0  0
   -0.7500    1.2990    0.0000 C   0  0  0  0  0  0  0  0  0  0  0  0
   -1.5000    2.5981    0.0000 C   0  0  0  0  0  0  0  0  0  0  0  0
   -0.7500    3.8971    0.0000 C   0  0  0  0  0  0  0  0  0  0  0  0
   -1.5000    5.1962    0.0000 C   0  0  0  0  0  0  0  0  0  0  0  0
   -0.7500    6.4952    0.0000 O   0  0  0  0  0  0  0  0  0  0  0  0
    0.7500    6.4952    0.0000 C   0  0  0  0  0  0  0  0  0  0  0  0
    1.5000    7.7942    0.0000 C   0  0  0  0  0  0  0  0  0  0  0  0
    0.7500    9.0933    0.0000 N   0  0  0  0  0  0  0  0  0  0  0  0
    3.0000    7.7942    0.0000 C   0  0  0  0  0  0  0  0  0  0  0  0
    3.7500    9.0933    0.0000 C   0  0  0  0  0  0  0  0  0  0  0  0
    3.1399   10.4636    0.0000 C   0  0  0  0  0  0  0  0  0  0  0  0
    4.2546   11.4673    0.0000 N   0  0  0  0  0  0  0  0  0  0  0  0
    5.5537   10.7173    0.0000 C   0  0  0  0  0  0  0  0  0  0  0  0
    6.9802   11.1808    0.0000 C   0  0  0  0  0  0  0  0  0  0  0  0
    8.0950   10.1771    0.0000 C   0  0  0  0  0  0  0  0  0  0  0  0
    7.7831    8.7099    0.0000 C   0  0  0  0  0  0  0  0  0  0  0  0
    6.3565    8.2464    0.0000 C   0  0  0  0  0  0  0  0  0  0  0  0
    5.2418    9.2501    0.0000 C   0  0  0  0  0  0  0  0  0  0  0  0
   -3.0000    5.1962    0.0000 C   0  0  0  0  0  0  0  0  0  0  0  0
   -3.7500    3.8971    0.0000 N   0  0  0  0  0  0  0  0  0  0  0  0
   -3.0000    2.5981    0.0000 C   0  0  0  0  0  0  0  0  0  0  0  0
   -3.7500    1.2990    0.0000 C   0  0  0  0  0  0  0  0  0  0  0  0
   -3.1399   -0.0713    0.0000 C   0  0  0  0  0  0  0  0  0  0  0  0
   -4.2546   -1.0750    0.0000 C   0  0  0  0  0  0  0  0  0  0  0  0
   -5.5537   -0.3250    0.0000 O   0  0  0  0  0  0  0  0  0  0  0  0
   -5.2418    1.1422    0.0000 C   0  0  0  0  0  0  0  0  0  0  0  0
   -1.5000    0.0000    0.0000 C   0  0  0  0  0  0  0  0  0  0  0  0
   -0.7500   -1.2990    0.0000 C   0  0  0  0  0  0  0  0  0  0  0  0
  1  2  1  0
  2  3  2  0
  3  4  1  0
  4  5  1  0
  5  6  2  0
  6  7  1  0
  7  8  2  0
  8  9  1  0
  9 10  2  0
 10 11  1  0
 11 12  1  0
 12 13  1  0
 13 14  1  0
 14 15  1  1
 14 16  1  0
 16 17  1  0
 17 18  2  0
 18 19  1  0
 19 20  1  0
 20 21  2  0
 21 22  1  0
 22 23  2  0
 23 24  1  0
 24 25  2  0
 11 26  2  0
 26 27  1  0
 27 28  2  0
 28 29  1  0
 29 30  1  0
 30 31  2  0
 31 32  1  0
 32 33  1  0
  8 34  1  0
 34 35  2  0
 35  2  1  0
 35  5  1  0
 28  9  1  0
 33 29  2  0
 25 17  1  0
 25 20  1  0
M  END
>  <Compound_ID>  (107) 
CHEMBL594933

>  <Active>  (107) 
1

>  <Smiles>  (107) 
Cc1n[nH]c2cnc(-c3cc(OC[C@@H](N)Cc4c[nH]c5ccccc45)cnc3-c3ccoc3)cc12

>  <canonical_smi>  (107) 
Cc1n[nH]c2cnc(-c3cc(OC[C@@H](N)Cc4c[nH]c5ccccc45)cnc3-c3ccoc3)cc12

>  <Set>  (107) 
G2 active

>  <Set_type>  (107) 
Test

>  <MW>  (107) 
464.53

>  <HBD>  (107) 
3

>  <HBA>  (107) 
6

>  <NRB>  (107) 
7

>  <NR>  (107) 
6

>  <NAR>  (107) 
6

>  <PSA>  (107) 
118.64

>  <Standard Type>  (107) 
nan

>  <Standard Relation>  (107) 
nan

>  <Standard Units>  (107) 
nan

>  <Standard Value>  (107) 
nan

>  <Assay ChEMBL ID>  (107) 
nan

>  <Assay Description>  (107) 
nan

>  <BAO Label>  (107) 
nan

$$$$

     RDKit          2D

 42 48  0  0  0  0  0  0  0  0999 V2000
    0.8726  -22.6306    0.0000 O   0  0  0  0  0  0  0  0  0  0  0  0
    0.7158  -21.1388    0.0000 C   0  0  0  0  0  0  0  0  0  0  0  0
   -0.6546  -20.5287    0.0000 C   0  0  0  0  0  0  0  0  0  0  0  0
   -0.8113  -19.0369    0.0000 C   0  0  0  0  0  0  0  0  0  0  0  0
    0.4022  -18.1552    0.0000 C   0  0  0  0  0  0  0  0  0  0  0  0
    0.2454  -16.6634    0.0000 C   0  0  0  0  0  0  0  0  0  0  0  0
   -1.0537  -15.9134    0.0000 N   0  0  0  0  0  0  0  0  0  0  0  0
   -0.7418  -14.4462    0.0000 N   0  0  0  0  0  0  0  0  0  0  0  0
    0.7500  -14.2894    0.0000 C   0  0  0  0  0  0  0  0  0  0  0  0
    1.5000  -12.9904    0.0000 C   0  0  0  0  0  0  0  0  0  0  0  0
    3.0000  -12.9904    0.0000 C   0  0  0  0  0  0  0  0  0  0  0  0
    3.7500  -11.6913    0.0000 C   0  0  0  0  0  0  0  0  0  0  0  0
    3.0000  -10.3923    0.0000 N   0  0  0  0  0  0  0  0  0  0  0  0
    3.7500   -9.0933    0.0000 C   0  0  0  0  0  0  0  0  0  0  0  0
    3.0000   -7.7942    0.0000 C   0  0  0  0  0  0  0  0  0  0  0  0
    3.7500   -6.4952    0.0000 C   0  0  0  0  0  0  0  0  0  0  0  0
    3.0000   -5.1962    0.0000 C   0  0  0  0  0  0  0  0  0  0  0  0
    1.5000   -5.1962    0.0000 C   0  0  0  0  0  0  0  0  0  0  0  0
    0.7500   -3.8971    0.0000 C   0  0  0  0  0  0  0  0  0  0  0  0
    1.5000   -2.5981    0.0000 N   0  0  0  0  0  0  0  0  0  0  0  0
    0.7500   -1.2990    0.0000 C   0  0  0  0  0  0  0  0  0  0  0  0
    1.5000    0.0000    0.0000 C   0  0  0  0  0  0  0  0  0  0  0  0
    0.7500    1.2990    0.0000 C   0  0  0  0  0  0  0  0  0  0  0  0
   -0.7500    1.2990    0.0000 N   0  0  0  0  0  0  0  0  0  0  0  0
   -1.5000    0.0000    0.0000 C   0  0  0  0  0  0  0  0  0  0  0  0
   -3.0000    0.0000    0.0000 O   0  0  0  0  0  0  0  0  0  0  0  0
   -0.7500   -1.2990    0.0000 C   0  0  0  0  0  0  0  0  0  0  0  0
   -1.5000   -2.5981    0.0000 C   0  0  0  0  0  0  0  0  0  0  0  0
   -0.7500   -3.8971    0.0000 C   0  0  0  0  0  0  0  0  0  0  0  0
   -1.5000   -5.1962    0.0000 C   0  0  0  0  0  0  0  0  0  0  0  0
   -3.0000   -5.1962    0.0000 C   0  0  0  0  0  0  0  0  0  0  0  0
   -3.7500   -6.4952    0.0000 C   0  0  0  0  0  0  0  0  0  0  0  0
   -3.0000   -7.7942    0.0000 C   0  0  0  0  0  0  0  0  0  0  0  0
   -1.5000   -7.7942    0.0000 C   0  0  0  0  0  0  0  0  0  0  0  0
   -0.7500   -6.4952    0.0000 C   0  0  0  0  0  0  0  0  0  0  0  0
    0.7500   -6.4952    0.0000 C   0  0  0  0  0  0  0  0  0  0  0  0
    1.5000   -7.7942    0.0000 C   0  0  0  0  0  0  0  0  0  0  0  0
    1.5000  -10.3923    0.0000 C   0  0  0  0  0  0  0  0  0  0  0  0
    0.7500  -11.6913    0.0000 C   0  0  0  0  0  0  0  0  0  0  0  0
    1.3601  -15.6597    0.0000 N   0  0  0  0  0  0  0  0  0  0  0  0
    1.7725  -18.7653    0.0000 C   0  0  0  0  0  0  0  0  0  0  0  0
    1.9293  -20.2571    0.0000 N   0  0  0  0  0  0  0  0  0  0  0  0
  1  2  2  0
  2  3  1  0
  3  4  2  0
  4  5  1  0
  5  6  1  0
  6  7  2  0
  7  8  1  0
  8  9  2  0
  9 10  1  0
 10 11  1  0
 11 12  1  0
 12 13  1  0
 13 14  1  0
 14 15  1  0
 15 16  2  0
 16 17  1  0
 17 18  2  0
 18 19  1  0
 19 20  2  0
 20 21  1  0
 21 22  1  0
 22 23  2  0
 23 24  1  0
 24 25  1  0
 25 26  2  0
 25 27  1  0
 27 28  1  0
 28 29  2  0
 29 30  1  0
 30 31  2  0
 31 32  1  0
 32 33  2  0
 33 34  1  0
 34 35  2  0
 18 36  1  0
 36 37  2  0
 13 38  1  0
 38 39  1  0
  9 40  1  0
  5 41  2  0
 41 42  1  0
 42  2  1  0
 40  6  1  0
 39 10  1  0
 37 15  1  0
 29 19  1  0
 35 30  1  0
 27 21  2  0
M  END
>  <Compound_ID>  (108) 
CHEMBL488428

>  <Active>  (108) 
1

>  <Smiles>  (108) 
O=c1ccc(-c2nnc(C3CCN(Cc4ccc(-c5nc6cc[nH]c(=O)c6cc5-c5ccccc5)cc4)CC3)[nH]2)c[nH]1

>  <canonical_smi>  (108) 
O=c1ccc(-c2nnc(C3CCN(Cc4ccc(-c5nc6cc[nH]c(=O)c6cc5-c5ccccc5)cc4)CC3)[nH]2)c[nH]1

>  <Set>  (108) 
G2 active

>  <Set_type>  (108) 
Test

>  <MW>  (108) 
555.64

>  <HBD>  (108) 
3

>  <HBA>  (108) 
6

>  <NRB>  (108) 
6

>  <NR>  (108) 
7

>  <NAR>  (108) 
6

>  <PSA>  (108) 
123.42

>  <Standard Type>  (108) 
nan

>  <Standard Relation>  (108) 
nan

>  <Standard Units>  (108) 
nan

>  <Standard Value>  (108) 
nan

>  <Assay ChEMBL ID>  (108) 
nan

>  <Assay Description>  (108) 
nan

>  <BAO Label>  (108) 
nan

$$$$

     RDKit          2D

 30 33  0  0  0  0  0  0  0  0999 V2000
   -3.7548   -2.1855    0.0000 C   0  0  0  0  0  0  0  0  0  0  0  0
   -2.6401   -3.1891    0.0000 C   0  0  0  0  0  0  0  0  0  0  0  0
   -1.2135   -2.7256    0.0000 N   0  0  0  0  0  0  0  0  0  0  0  0
   -0.0000   -3.6073    0.0000 C   0  0  0  0  0  0  0  0  0  0  0  0
   -0.0000   -5.1073    0.0000 C   0  0  0  0  0  0  0  0  0  0  0  0
    1.2135   -5.9890    0.0000 N   0  0  0  0  0  0  0  0  0  0  0  0
    0.7500   -7.4156    0.0000 O   0  0  0  0  0  0  0  0  0  0  0  0
   -0.7500   -7.4156    0.0000 N   0  0  0  0  0  0  0  0  0  0  0  0
   -1.2135   -5.9890    0.0000 C   0  0  0  0  0  0  0  0  0  0  0  0
   -2.6401   -5.5255    0.0000 N   0  0  0  0  0  0  0  0  0  0  0  0
    1.2135   -2.7256    0.0000 N   0  0  0  0  0  0  0  0  0  0  0  0
    0.7500   -1.2990    0.0000 C   0  0  0  0  0  0  0  0  0  0  0  0
    1.5000    0.0000    0.0000 C   0  0  0  0  0  0  0  0  0  0  0  0
    3.0000    0.0000    0.0000 C   0  0  0  0  0  0  0  0  0  0  0  0
    4.5000    0.0000    0.0000 C   0  0  0  0  0  0  0  0  0  0  0  0
    6.0000    0.0000    0.0000 C   0  0  0  0  0  0  0  0  0  0  0  0
    6.0000   -1.5000    0.0000 C   0  0  0  0  0  0  0  0  0  0  0  0
    6.0000    1.5000    0.0000 C   0  0  0  0  0  0  0  0  0  0  0  0
    7.5000    0.0000    0.0000 O   0  0  0  0  0  0  0  0  0  0  0  0
    0.7500    1.2990    0.0000 N   0  0  0  0  0  0  0  0  0  0  0  0
   -0.7500    1.2990    0.0000 C   0  0  0  0  0  0  0  0  0  0  0  0
   -1.5000    0.0000    0.0000 C   0  0  0  0  0  0  0  0  0  0  0  0
   -3.0000    0.0000    0.0000 O   0  0  0  0  0  0  0  0  0  0  0  0
   -3.7500    1.2990    0.0000 C   0  0  0  0  0  0  0  0  0  0  0  0
   -3.0000    2.5981    0.0000 C   0  0  0  0  0  0  0  0  0  0  0  0
   -3.7500    3.8971    0.0000 C   0  0  0  0  0  0  0  0  0  0  0  0
   -5.2500    3.8971    0.0000 N   0  0  0  0  0  0  0  0  0  0  0  0
   -6.0000    2.5981    0.0000 C   0  0  0  0  0  0  0  0  0  0  0  0
   -5.2500    1.2990    0.0000 C   0  0  0  0  0  0  0  0  0  0  0  0
   -0.7500   -1.2990    0.0000 C   0  0  0  0  0  0  0  0  0  0  0  0
  1  2  1  0
  2  3  1  0
  3  4  1  0
  4  5  1  0
  5  6  2  0
  6  7  1  0
  7  8  1  0
  8  9  2  0
  9 10  1  0
  4 11  2  0
 11 12  1  0
 12 13  2  0
 13 14  1  0
 14 15  3  0
 15 16  1  0
 16 17  1  0
 16 18  1  0
 16 19  1  0
 13 20  1  0
 20 21  2  0
 21 22  1  0
 22 23  1  0
 23 24  1  0
 24 25  1  0
 25 26  1  0
 26 27  1  0
 27 28  1  0
 28 29  1  0
 22 30  2  0
 30  3  1  0
  9  5  1  0
 30 12  1  0
 29 24  1  0
M  END
>  <Compound_ID>  (109) 
CHEMBL522857

>  <Active>  (109) 
1

>  <Smiles>  (109) 
CCn1c(-c2nonc2N)nc2c(C#CC(C)(C)O)ncc(OC3CCNCC3)c21

>  <canonical_smi>  (109) 
CCn1c(-c2nonc2N)nc2c(C#CC(C)(C)O)ncc(OC3CCNCC3)c21

>  <Set>  (109) 
G2 active

>  <Set_type>  (109) 
Test

>  <MW>  (109) 
411.47

>  <HBD>  (109) 
3

>  <HBA>  (109) 
9

>  <NRB>  (109) 
4

>  <NR>  (109) 
4

>  <NAR>  (109) 
3

>  <PSA>  (109) 
137.14

>  <Standard Type>  (109) 
nan

>  <Standard Relation>  (109) 
nan

>  <Standard Units>  (109) 
nan

>  <Standard Value>  (109) 
nan

>  <Assay ChEMBL ID>  (109) 
nan

>  <Assay Description>  (109) 
nan

>  <BAO Label>  (109) 
nan

$$$$

     RDKit          2D

 30 33  0  0  0  0  0  0  0  0999 V2000
    5.2500   -1.2990    0.0000 N   0  0  0  0  0  0  0  0  0  0  0  0
    3.7500   -1.2990    0.0000 C   0  0  0  0  0  0  0  0  0  0  0  0
    3.0000   -2.5981    0.0000 O   0  0  0  0  0  0  0  0  0  0  0  0
    3.0000    0.0000    0.0000 N   0  0  0  0  0  0  0  0  0  0  0  0
    1.5000    0.0000    0.0000 C   0  0  0  0  0  0  0  0  0  0  0  0
    0.7500   -1.2990    0.0000 C   0  0  0  0  0  0  0  0  0  0  0  0
   -0.7500   -1.2990    0.0000 C   0  0  0  0  0  0  0  0  0  0  0  0
   -1.5000    0.0000    0.0000 C   0  0  0  0  0  0  0  0  0  0  0  0
   -0.7500    1.2990    0.0000 C   0  0  0  0  0  0  0  0  0  0  0  0
    0.7500    1.2990    0.0000 C   0  0  0  0  0  0  0  0  0  0  0  0
   -1.7537    2.4138    0.0000 C   0  0  0  0  0  0  0  0  0  0  0  0
   -1.4418    3.8810    0.0000 C   0  0  0  0  0  0  0  0  0  0  0  0
   -2.5565    4.8847    0.0000 C   0  0  0  0  0  0  0  0  0  0  0  0
   -4.0238    4.5728    0.0000 C   0  0  0  0  0  0  0  0  0  0  0  0
   -4.7738    5.8718    0.0000 C   0  0  0  0  0  0  0  0  0  0  0  0
   -6.2655    6.0286    0.0000 C   0  0  0  0  0  0  0  0  0  0  0  0
   -7.1472    4.8151    0.0000 O   0  0  0  0  0  0  0  0  0  0  0  0
   -6.8757    7.3990    0.0000 N   0  0  0  0  0  0  0  0  0  0  0  0
   -8.3674    7.5557    0.0000 C   0  0  0  0  0  0  0  0  0  0  0  0
   -8.9775    8.9261    0.0000 C   0  0  0  0  0  0  0  0  0  0  0  0
  -10.4693    9.0829    0.0000 C   0  0  0  0  0  0  0  0  0  0  0  0
  -11.4730    7.9681    0.0000 C   0  0  0  0  0  0  0  0  0  0  0  0
  -12.8433    8.5782    0.0000 N   0  0  0  0  0  0  0  0  0  0  0  0
  -12.6865   10.0700    0.0000 C   0  0  0  0  0  0  0  0  0  0  0  0
  -11.2193   10.3819    0.0000 N   0  0  0  0  0  0  0  0  0  0  0  0
   -3.7701    6.9866    0.0000 C   0  0  0  0  0  0  0  0  0  0  0  0
   -2.3998    6.3765    0.0000 N   0  0  0  0  0  0  0  0  0  0  0  0
   -3.1240    1.8037    0.0000 C   0  0  0  0  0  0  0  0  0  0  0  0
   -4.4231    2.5537    0.0000 O   0  0  0  0  0  0  0  0  0  0  0  0
   -2.9672    0.3119    0.0000 N   0  0  0  0  0  0  0  0  0  0  0  0
  1  2  1  0
  2  3  2  0
  2  4  1  0
  4  5  1  0
  5  6  2  0
  6  7  1  0
  7  8  2  0
  8  9  1  0
  9 10  2  0
  9 11  1  0
 11 12  2  0
 12 13  1  0
 13 14  2  0
 14 15  1  0
 15 16  1  0
 16 17  2  0
 16 18  1  0
 18 19  1  0
 19 20  1  0
 20 21  1  0
 21 22  2  0
 22 23  1  0
 23 24  2  0
 24 25  1  0
 15 26  2  0
 26 27  1  0
 11 28  1  0
 28 29  2  0
 28 30  1  0
 10  5  1  0
 27 13  1  0
 30  8  1  0
 25 21  1  0
M  END
>  <Compound_ID>  (110) 
CHEMBL228749

>  <Active>  (110) 
1

>  <Smiles>  (110) 
NC(=O)Nc1ccc2c(c1)/C(=C/c1cc(C(=O)NCCc3cnc[nH]3)c[nH]1)C(=O)N2

>  <canonical_smi>  (110) 
NC(=O)Nc1ccc2c(c1)/C(=C/c1cc(C(=O)NCCc3cnc[nH]3)c[nH]1)C(=O)N2

>  <Set>  (110) 
G2 active

>  <Set_type>  (110) 
Test

>  <MW>  (110) 
405.42

>  <HBD>  (110) 
6

>  <HBA>  (110) 
4

>  <NRB>  (110) 
6

>  <NR>  (110) 
4

>  <NAR>  (110) 
3

>  <PSA>  (110) 
157.79

>  <Standard Type>  (110) 
nan

>  <Standard Relation>  (110) 
nan

>  <Standard Units>  (110) 
nan

>  <Standard Value>  (110) 
nan

>  <Assay ChEMBL ID>  (110) 
nan

>  <Assay Description>  (110) 
nan

>  <BAO Label>  (110) 
nan

$$$$

     RDKit          2D

 41 47  0  0  0  0  0  0  0  0999 V2000
    3.0000    0.0000    0.0000 O   0  0  0  0  0  0  0  0  0  0  0  0
    1.5000    0.0000    0.0000 C   0  0  0  0  0  0  0  0  0  0  0  0
    0.7500   -1.2990    0.0000 N   0  0  0  0  0  0  0  0  0  0  0  0
   -0.7500   -1.2990    0.0000 C   0  0  0  0  0  0  0  0  0  0  0  0
   -1.5000    0.0000    0.0000 C   0  0  0  0  0  0  0  0  0  0  0  0
   -0.7500    1.2990    0.0000 C   0  0  0  0  0  0  0  0  0  0  0  0
   -1.5000    2.5981    0.0000 N   0  0  0  0  0  0  0  0  0  0  0  0
   -0.7500    3.8971    0.0000 C   0  0  0  0  0  0  0  0  0  0  0  0
   -1.5000    5.1962    0.0000 C   0  0  0  0  0  0  0  0  0  0  0  0
   -0.7500    6.4952    0.0000 C   0  0  0  0  0  0  0  0  0  0  0  0
   -1.5000    7.7942    0.0000 C   0  0  0  0  0  0  0  0  0  0  0  0
   -3.0000    7.7942    0.0000 C   0  0  0  0  0  0  0  0  0  0  0  0
   -3.7500    9.0933    0.0000 C   0  0  0  0  0  0  0  0  0  0  0  0
   -3.0000   10.3923    0.0000 N   0  0  0  0  0  0  0  0  0  0  0  0
   -1.5000   10.3923    0.0000 C   0  0  0  0  0  0  0  0  0  0  0  0
   -0.7500   11.6913    0.0000 C   0  0  0  0  0  0  0  0  0  0  0  0
   -1.5000   12.9904    0.0000 C   0  0  0  0  0  0  0  0  0  0  0  0
   -0.7500   14.2894    0.0000 C   0  0  0  0  0  0  0  0  0  0  0  0
   -1.3601   15.6597    0.0000 N   0  0  0  0  0  0  0  0  0  0  0  0
   -0.2454   16.6634    0.0000 N   0  0  0  0  0  0  0  0  0  0  0  0
    1.0537   15.9134    0.0000 C   0  0  0  0  0  0  0  0  0  0  0  0
    2.4240   16.5235    0.0000 C   0  0  0  0  0  0  0  0  0  0  0  0
    3.6375   15.6419    0.0000 C   0  0  0  0  0  0  0  0  0  0  0  0
    5.0078   16.2520    0.0000 N   0  0  0  0  0  0  0  0  0  0  0  0
    5.1646   17.7437    0.0000 C   0  0  0  0  0  0  0  0  0  0  0  0
    3.9511   18.6254    0.0000 C   0  0  0  0  0  0  0  0  0  0  0  0
    2.5808   18.0153    0.0000 N   0  0  0  0  0  0  0  0  0  0  0  0
    0.7418   14.4462    0.0000 N   0  0  0  0  0  0  0  0  0  0  0  0
   -3.0000   12.9904    0.0000 C   0  0  0  0  0  0  0  0  0  0  0  0
   -3.7500   11.6913    0.0000 C   0  0  0  0  0  0  0  0  0  0  0  0
   -3.7500    6.4952    0.0000 C   0  0  0  0  0  0  0  0  0  0  0  0
   -3.0000    5.1962    0.0000 C   0  0  0  0  0  0  0  0  0  0  0  0
    0.7500    3.8971    0.0000 C   0  0  0  0  0  0  0  0  0  0  0  0
    1.5000    5.1962    0.0000 C   0  0  0  0  0  0  0  0  0  0  0  0
    3.0000    5.1962    0.0000 C   0  0  0  0  0  0  0  0  0  0  0  0
    3.7500    6.4952    0.0000 C   0  0  0  0  0  0  0  0  0  0  0  0
    3.0000    7.7942    0.0000 C   0  0  0  0  0  0  0  0  0  0  0  0
    1.5000    7.7942    0.0000 C   0  0  0  0  0  0  0  0  0  0  0  0
    0.7500    6.4952    0.0000 C   0  0  0  0  0  0  0  0  0  0  0  0
    1.5000    2.5981    0.0000 C   0  0  0  0  0  0  0  0  0  0  0  0
    0.7500    1.2990    0.0000 C   0  0  0  0  0  0  0  0  0  0  0  0
  1  2  2  0
  2  3  1  0
  3  4  1  0
  4  5  2  0
  5  6  1  0
  6  7  2  0
  7  8  1  0
  8  9  1  0
  9 10  2  0
 10 11  1  0
 11 12  2  0
 12 13  1  0
 13 14  1  0
 14 15  1  0
 15 16  1  0
 16 17  1  0
 17 18  1  0
 18 19  2  0
 19 20  1  0
 20 21  2  0
 21 22  1  0
 22 23  2  0
 23 24  1  0
 24 25  2  0
 25 26  1  0
 26 27  2  0
 21 28  1  0
 17 29  1  0
 29 30  1  0
 12 31  1  0
 31 32  2  0
  8 33  2  0
 33 34  1  0
 34 35  2  0
 35 36  1  0
 36 37  2  0
 37 38  1  0
 38 39  2  0
 33 40  1  0
 40 41  2  0
 41  2  1  0
 41  6  1  0
 32  9  1  0
 39 34  1  0
 30 14  1  0
 28 18  1  0
 27 22  1  0
M  END
>  <Compound_ID>  (111) 
CHEMBL444136

>  <Active>  (111) 
1

>  <Smiles>  (111) 
O=c1[nH]ccc2nc(-c3ccc(CN4CCC(c5nnc(-c6cnccn6)[nH]5)CC4)cc3)c(-c3ccccc3)cc12

>  <canonical_smi>  (111) 
O=c1[nH]ccc2nc(-c3ccc(CN4CCC(c5nnc(-c6cnccn6)[nH]5)CC4)cc3)c(-c3ccccc3)cc12

>  <Set>  (111) 
G2 active

>  <Set_type>  (111) 
Test

>  <MW>  (111) 
540.63

>  <HBD>  (111) 
2

>  <HBA>  (111) 
7

>  <NRB>  (111) 
6

>  <NR>  (111) 
7

>  <NAR>  (111) 
6

>  <PSA>  (111) 
116.34

>  <Standard Type>  (111) 
nan

>  <Standard Relation>  (111) 
nan

>  <Standard Units>  (111) 
nan

>  <Standard Value>  (111) 
nan

>  <Assay ChEMBL ID>  (111) 
nan

>  <Assay Description>  (111) 
nan

>  <BAO Label>  (111) 
nan

$$$$

     RDKit          2D

 44 51  0  0  0  0  0  0  0  0999 V2000
   -1.7455  -13.3315    0.0000 O   0  0  0  0  0  0  0  0  0  0  0  0
   -0.7418  -14.4462    0.0000 C   0  0  0  0  0  0  0  0  0  0  0  0
   -1.0537  -15.9134    0.0000 N   0  0  0  0  0  0  0  0  0  0  0  0
    0.2454  -16.6634    0.0000 C   0  0  0  0  0  0  0  0  0  0  0  0
    0.5573  -18.1307    0.0000 C   0  0  0  0  0  0  0  0  0  0  0  0
    1.9838  -18.5942    0.0000 C   0  0  0  0  0  0  0  0  0  0  0  0
    3.0986  -17.5905    0.0000 C   0  0  0  0  0  0  0  0  0  0  0  0
    2.7867  -16.1233    0.0000 C   0  0  0  0  0  0  0  0  0  0  0  0
    1.3601  -15.6597    0.0000 C   0  0  0  0  0  0  0  0  0  0  0  0
    0.7500  -14.2894    0.0000 N   0  0  0  0  0  0  0  0  0  0  0  0
    1.5000  -12.9904    0.0000 C   0  0  0  0  0  0  0  0  0  0  0  0
    3.0000  -12.9904    0.0000 C   0  0  0  0  0  0  0  0  0  0  0  0
    3.7500  -11.6913    0.0000 C   0  0  0  0  0  0  0  0  0  0  0  0
    3.0000  -10.3923    0.0000 N   0  0  0  0  0  0  0  0  0  0  0  0
    3.7500   -9.0933    0.0000 C   0  0  0  0  0  0  0  0  0  0  0  0
    3.0000   -7.7942    0.0000 C   0  0  0  0  0  0  0  0  0  0  0  0
    3.7500   -6.4952    0.0000 C   0  0  0  0  0  0  0  0  0  0  0  0
    3.0000   -5.1962    0.0000 C   0  0  0  0  0  0  0  0  0  0  0  0
    1.5000   -5.1962    0.0000 C   0  0  0  0  0  0  0  0  0  0  0  0
    0.7500   -3.8971    0.0000 C   0  0  0  0  0  0  0  0  0  0  0  0
    1.5000   -2.5981    0.0000 N   0  0  0  0  0  0  0  0  0  0  0  0
    0.7500   -1.2990    0.0000 C   0  0  0  0  0  0  0  0  0  0  0  0
    1.5000    0.0000    0.0000 C   0  0  0  0  0  0  0  0  0  0  0  0
    0.7500    1.2990    0.0000 C   0  0  0  0  0  0  0  0  0  0  0  0
   -0.7500    1.2990    0.0000 C   0  0  0  0  0  0  0  0  0  0  0  0
   -1.5000    2.5981    0.0000 C   0  0  0  0  0  0  0  0  0  0  0  0
   -2.9918    2.7549    0.0000 N   0  0  0  0  0  0  0  0  0  0  0  0
   -3.3037    4.2221    0.0000 N   0  0  0  0  0  0  0  0  0  0  0  0
   -2.0046    4.9721    0.0000 N   0  0  0  0  0  0  0  0  0  0  0  0
   -0.8899    3.9684    0.0000 N   0  0  0  0  0  0  0  0  0  0  0  0
   -1.5000    0.0000    0.0000 C   0  0  0  0  0  0  0  0  0  0  0  0
   -0.7500   -1.2990    0.0000 C   0  0  0  0  0  0  0  0  0  0  0  0
   -1.5000   -2.5981    0.0000 N   0  0  0  0  0  0  0  0  0  0  0  0
   -0.7500   -3.8971    0.0000 C   0  0  0  0  0  0  0  0  0  0  0  0
   -1.5000   -5.1962    0.0000 C   0  0  0  0  0  0  0  0  0  0  0  0
   -3.0000   -5.1962    0.0000 C   0  0  0  0  0  0  0  0  0  0  0  0
   -3.7500   -6.4952    0.0000 C   0  0  0  0  0  0  0  0  0  0  0  0
   -3.0000   -7.7942    0.0000 C   0  0  0  0  0  0  0  0  0  0  0  0
   -1.5000   -7.7942    0.0000 C   0  0  0  0  0  0  0  0  0  0  0  0
   -0.7500   -6.4952    0.0000 C   0  0  0  0  0  0  0  0  0  0  0  0
    0.7500   -6.4952    0.0000 C   0  0  0  0  0  0  0  0  0  0  0  0
    1.5000   -7.7942    0.0000 C   0  0  0  0  0  0  0  0  0  0  0  0
    1.5000  -10.3923    0.0000 C   0  0  0  0  0  0  0  0  0  0  0  0
    0.7500  -11.6913    0.0000 C   0  0  0  0  0  0  0  0  0  0  0  0
  1  2  2  0
  2  3  1  0
  3  4  1  0
  4  5  2  0
  5  6  1  0
  6  7  2  0
  7  8  1  0
  8  9  2  0
  9 10  1  0
 10 11  1  0
 11 12  1  0
 12 13  1  0
 13 14  1  0
 14 15  1  0
 15 16  1  0
 16 17  2  0
 17 18  1  0
 18 19  2  0
 19 20  1  0
 20 21  2  0
 21 22  1  0
 22 23  2  0
 23 24  1  0
 24 25  2  0
 25 26  1  0
 26 27  1  0
 27 28  2  0
 28 29  1  0
 29 30  1  0
 25 31  1  0
 31 32  2  0
 32 33  1  0
 33 34  2  0
 34 35  1  0
 35 36  2  0
 36 37  1  0
 37 38  2  0
 38 39  1  0
 39 40  2  0
 19 41  1  0
 41 42  2  0
 14 43  1  0
 43 44  1  0
 10  2  1  0
 44 11  1  0
  9  4  1  0
 42 16  1  0
 34 20  1  0
 40 35  1  0
 32 22  1  0
 30 26  2  0
M  END
>  <Compound_ID>  (112) 
CHEMBL271091

>  <Active>  (112) 
1

>  <Smiles>  (112) 
O=c1[nH]c2ccccc2n1C1CCN(Cc2ccc(-c3nc4ccc(-c5nn[nH]n5)cc4nc3-c3ccccc3)cc2)CC1

>  <canonical_smi>  (112) 
O=c1[nH]c2ccccc2n1C1CCN(Cc2ccc(-c3nc4ccc(-c5nn[nH]n5)cc4nc3-c3ccccc3)cc2)CC1

>  <Set>  (112) 
G2 active

>  <Set_type>  (112) 
Test

>  <MW>  (112) 
579.67

>  <HBD>  (112) 
2

>  <HBA>  (112) 
7

>  <NRB>  (112) 
6

>  <NR>  (112) 
8

>  <NAR>  (112) 
7

>  <PSA>  (112) 
121.27

>  <Standard Type>  (112) 
nan

>  <Standard Relation>  (112) 
nan

>  <Standard Units>  (112) 
nan

>  <Standard Value>  (112) 
nan

>  <Assay ChEMBL ID>  (112) 
nan

>  <Assay Description>  (112) 
nan

>  <BAO Label>  (112) 
nan

$$$$

     RDKit          2D

 41 47  0  0  0  0  0  0  0  0999 V2000
   -6.5349  -18.3539    0.0000 O   0  0  0  0  0  0  0  0  0  0  0  0
   -5.1646  -17.7437    0.0000 C   0  0  0  0  0  0  0  0  0  0  0  0
   -5.0078  -16.2520    0.0000 C   0  0  0  0  0  0  0  0  0  0  0  0
   -3.6375  -15.6419    0.0000 C   0  0  0  0  0  0  0  0  0  0  0  0
   -2.4240  -16.5235    0.0000 C   0  0  0  0  0  0  0  0  0  0  0  0
   -1.0537  -15.9134    0.0000 C   0  0  0  0  0  0  0  0  0  0  0  0
   -0.7418  -14.4462    0.0000 C   0  0  0  0  0  0  0  0  0  0  0  0
    0.7500  -14.2894    0.0000 C   0  0  0  0  0  0  0  0  0  0  0  0
    1.5000  -12.9904    0.0000 C   0  0  0  0  0  0  0  0  0  0  0  0
    3.0000  -12.9904    0.0000 C   0  0  0  0  0  0  0  0  0  0  0  0
    3.7500  -11.6913    0.0000 C   0  0  0  0  0  0  0  0  0  0  0  0
    3.0000  -10.3923    0.0000 N   0  0  0  0  0  0  0  0  0  0  0  0
    3.7500   -9.0933    0.0000 C   0  0  0  0  0  0  0  0  0  0  0  0
    3.0000   -7.7942    0.0000 C   0  0  0  0  0  0  0  0  0  0  0  0
    3.7500   -6.4952    0.0000 C   0  0  0  0  0  0  0  0  0  0  0  0
    3.0000   -5.1962    0.0000 C   0  0  0  0  0  0  0  0  0  0  0  0
    1.5000   -5.1962    0.0000 C   0  0  0  0  0  0  0  0  0  0  0  0
    0.7500   -3.8971    0.0000 C   0  0  0  0  0  0  0  0  0  0  0  0
    1.5000   -2.5981    0.0000 N   0  0  0  0  0  0  0  0  0  0  0  0
    0.7500   -1.2990    0.0000 C   0  0  0  0  0  0  0  0  0  0  0  0
    1.5000    0.0000    0.0000 N   0  0  0  0  0  0  0  0  0  0  0  0
    0.7500    1.2990    0.0000 C   0  0  0  0  0  0  0  0  0  0  0  0
   -0.7500    1.2990    0.0000 C   0  0  0  0  0  0  0  0  0  0  0  0
   -1.5000    0.0000    0.0000 C   0  0  0  0  0  0  0  0  0  0  0  0
   -0.7500   -1.2990    0.0000 C   0  0  0  0  0  0  0  0  0  0  0  0
   -1.5000   -2.5981    0.0000 C   0  0  0  0  0  0  0  0  0  0  0  0
   -0.7500   -3.8971    0.0000 C   0  0  0  0  0  0  0  0  0  0  0  0
   -1.5000   -5.1962    0.0000 C   0  0  0  0  0  0  0  0  0  0  0  0
   -3.0000   -5.1962    0.0000 C   0  0  0  0  0  0  0  0  0  0  0  0
   -3.7500   -6.4952    0.0000 C   0  0  0  0  0  0  0  0  0  0  0  0
   -3.0000   -7.7942    0.0000 C   0  0  0  0  0  0  0  0  0  0  0  0
   -1.5000   -7.7942    0.0000 C   0  0  0  0  0  0  0  0  0  0  0  0
   -0.7500   -6.4952    0.0000 C   0  0  0  0  0  0  0  0  0  0  0  0
    0.7500   -6.4952    0.0000 C   0  0  0  0  0  0  0  0  0  0  0  0
    1.5000   -7.7942    0.0000 C   0  0  0  0  0  0  0  0  0  0  0  0
    1.5000  -10.3923    0.0000 C   0  0  0  0  0  0  0  0  0  0  0  0
    0.7500  -11.6913    0.0000 C   0  0  0  0  0  0  0  0  0  0  0  0
    1.3601  -15.6597    0.0000 N   0  0  0  0  0  0  0  0  0  0  0  0
    0.2454  -16.6634    0.0000 N   0  0  0  0  0  0  0  0  0  0  0  0
   -2.5808  -18.0153    0.0000 C   0  0  0  0  0  0  0  0  0  0  0  0
   -3.9511  -18.6254    0.0000 N   0  0  0  0  0  0  0  0  0  0  0  0
  1  2  2  0
  2  3  1  0
  3  4  2  0
  4  5  1  0
  5  6  1  0
  6  7  2  0
  7  8  1  0
  8  9  1  0
  9 10  1  0
 10 11  1  0
 11 12  1  0
 12 13  1  0
 13 14  1  0
 14 15  2  0
 15 16  1  0
 16 17  2  0
 17 18  1  0
 18 19  2  0
 19 20  1  0
 20 21  2  0
 21 22  1  0
 22 23  2  0
 23 24  1  0
 24 25  2  0
 25 26  1  0
 26 27  2  0
 27 28  1  0
 28 29  2  0
 29 30  1  0
 30 31  2  0
 31 32  1  0
 32 33  2  0
 17 34  1  0
 34 35  2  0
 12 36  1  0
 36 37  1  0
  8 38  2  0
 38 39  1  0
  5 40  2  0
 40 41  1  0
 41  2  1  0
 39  6  1  0
 37  9  1  0
 35 14  1  0
 27 18  1  0
 33 28  1  0
 25 20  1  0
M  END
>  <Compound_ID>  (113) 
CHEMBL260184

>  <Active>  (113) 
1

>  <Smiles>  (113) 
O=c1ccc(-c2cc(C3CCN(Cc4ccc(-c5nc6ncccc6cc5-c5ccccc5)cc4)CC3)n[nH]2)c[nH]1

>  <canonical_smi>  (113) 
O=c1ccc(-c2cc(C3CCN(Cc4ccc(-c5nc6ncccc6cc5-c5ccccc5)cc4)CC3)n[nH]2)c[nH]1

>  <Set>  (113) 
G2 active

>  <Set_type>  (113) 
Test

>  <MW>  (113) 
538.66

>  <HBD>  (113) 
2

>  <HBA>  (113) 
5

>  <NRB>  (113) 
6

>  <NR>  (113) 
7

>  <NAR>  (113) 
6

>  <PSA>  (113) 
90.56

>  <Standard Type>  (113) 
nan

>  <Standard Relation>  (113) 
nan

>  <Standard Units>  (113) 
nan

>  <Standard Value>  (113) 
nan

>  <Assay ChEMBL ID>  (113) 
nan

>  <Assay Description>  (113) 
nan

>  <BAO Label>  (113) 
nan

$$$$

     RDKit          2D

 40 46  0  0  0  0  0  0  0  0999 V2000
    3.0000   -7.7942    0.0000 C   0  0  0  0  0  0  0  0  0  0  0  0
    1.5000   -7.7942    0.0000 C   0  0  0  0  0  0  0  0  0  0  0  0
    0.7500   -6.4952    0.0000 C   0  0  0  0  0  0  0  0  0  0  0  0
    1.5000   -5.1962    0.0000 C   0  0  0  0  0  0  0  0  0  0  0  0
    0.7500   -3.8971    0.0000 C   0  0  0  0  0  0  0  0  0  0  0  0
    1.5000   -2.5981    0.0000 C   0  0  0  0  0  0  0  0  0  0  0  0
    0.7500   -1.2990    0.0000 C   0  0  0  0  0  0  0  0  0  0  0  0
    1.5000    0.0000    0.0000 C   0  0  0  0  0  0  0  0  0  0  0  0
    0.7500    1.2990    0.0000 C   0  0  0  0  0  0  0  0  0  0  0  0
   -0.7500    1.2990    0.0000 N   0  0  0  0  0  0  0  0  0  0  0  0
   -1.5000    0.0000    0.0000 C   0  0  0  0  0  0  0  0  0  0  0  0
   -0.7500   -1.2990    0.0000 C   0  0  0  0  0  0  0  0  0  0  0  0
   -1.5000   -2.5981    0.0000 N   0  0  0  0  0  0  0  0  0  0  0  0
   -0.7500   -3.8971    0.0000 C   0  0  0  0  0  0  0  0  0  0  0  0
   -1.5000   -5.1962    0.0000 C   0  0  0  0  0  0  0  0  0  0  0  0
   -3.0000   -5.1962    0.0000 C   0  0  0  0  0  0  0  0  0  0  0  0
   -3.7500   -6.4952    0.0000 C   0  0  0  0  0  0  0  0  0  0  0  0
   -3.0000   -7.7942    0.0000 C   0  0  0  0  0  0  0  0  0  0  0  0
   -3.7500   -9.0933    0.0000 C   0  0  0  0  0  0  0  0  0  0  0  0
   -5.2500   -9.0933    0.0000 N   0  0  0  0  0  0  0  0  0  0  0  0
   -6.0000   -7.7942    0.0000 C   0  0  0  0  0  0  0  0  0  0  0  0
   -7.5000   -7.7942    0.0000 C   0  0  0  0  0  0  0  0  0  0  0  0
   -8.2500   -9.0933    0.0000 C   0  0  0  0  0  0  0  0  0  0  0  0
   -9.7500   -9.0933    0.0000 C   0  0  0  0  0  0  0  0  0  0  0  0
  -10.6317  -10.3068    0.0000 N   0  0  0  0  0  0  0  0  0  0  0  0
  -12.0583   -9.8433    0.0000 N   0  0  0  0  0  0  0  0  0  0  0  0
  -12.0583   -8.3433    0.0000 C   0  0  0  0  0  0  0  0  0  0  0  0
  -13.2718   -7.4616    0.0000 C   0  0  0  0  0  0  0  0  0  0  0  0
  -13.1150   -5.9698    0.0000 C   0  0  0  0  0  0  0  0  0  0  0  0
  -14.3285   -5.0881    0.0000 C   0  0  0  0  0  0  0  0  0  0  0  0
  -15.6988   -5.6982    0.0000 C   0  0  0  0  0  0  0  0  0  0  0  0
  -15.8556   -7.1900    0.0000 C   0  0  0  0  0  0  0  0  0  0  0  0
  -14.6421   -8.0717    0.0000 N   0  0  0  0  0  0  0  0  0  0  0  0
  -10.6317   -7.8797    0.0000 N   0  0  0  0  0  0  0  0  0  0  0  0
   -7.5000  -10.3923    0.0000 C   0  0  0  0  0  0  0  0  0  0  0  0
   -6.0000  -10.3923    0.0000 C   0  0  0  0  0  0  0  0  0  0  0  0
   -1.5000   -7.7942    0.0000 C   0  0  0  0  0  0  0  0  0  0  0  0
   -0.7500   -6.4952    0.0000 C   0  0  0  0  0  0  0  0  0  0  0  0
    3.0000   -5.1962    0.0000 C   0  0  0  0  0  0  0  0  0  0  0  0
    3.7500   -6.4952    0.0000 C   0  0  0  0  0  0  0  0  0  0  0  0
  1  2  2  0
  2  3  1  0
  3  4  2  0
  4  5  1  0
  5  6  2  0
  6  7  1  0
  7  8  2  0
  8  9  1  0
  9 10  2  0
 10 11  1  0
 11 12  2  0
 12 13  1  0
 13 14  2  0
 14 15  1  0
 15 16  2  0
 16 17  1  0
 17 18  2  0
 18 19  1  0
 19 20  1  0
 20 21  1  0
 21 22  1  0
 22 23  1  0
 23 24  1  0
 24 25  2  0
 25 26  1  0
 26 27  1  0
 27 28  1  0
 28 29  2  0
 29 30  1  0
 30 31  2  0
 31 32  1  0
 32 33  2  0
 27 34  2  0
 23 35  1  0
 35 36  1  0
 18 37  1  0
 37 38  2  0
  4 39  1  0
 39 40  2  0
 40  1  1  0
 14  5  1  0
 38 15  1  0
 12  7  1  0
 36 20  1  0
 34 24  1  0
 33 28  1  0
M  END
>  <Compound_ID>  (114) 
CHEMBL259968

>  <Active>  (114) 
1

>  <Smiles>  (114) 
c1ccc(-c2cc3ccncc3nc2-c2ccc(CN3CCC(c4n[nH]c(-c5ccccn5)n4)CC3)cc2)cc1

>  <canonical_smi>  (114) 
c1ccc(-c2cc3ccncc3nc2-c2ccc(CN3CCC(c4n[nH]c(-c5ccccn5)n4)CC3)cc2)cc1

>  <Set>  (114) 
G2 active

>  <Set_type>  (114) 
Test

>  <MW>  (114) 
523.64

>  <HBD>  (114) 
1

>  <HBA>  (114) 
6

>  <NRB>  (114) 
6

>  <NR>  (114) 
7

>  <NAR>  (114) 
6

>  <PSA>  (114) 
83.48

>  <Standard Type>  (114) 
nan

>  <Standard Relation>  (114) 
nan

>  <Standard Units>  (114) 
nan

>  <Standard Value>  (114) 
nan

>  <Assay ChEMBL ID>  (114) 
nan

>  <Assay Description>  (114) 
nan

>  <BAO Label>  (114) 
nan

$$$$

     RDKit          2D

 40 46  0  0  0  0  0  0  0  0999 V2000
    3.0000   -7.7942    0.0000 C   0  0  0  0  0  0  0  0  0  0  0  0
    1.5000   -7.7942    0.0000 C   0  0  0  0  0  0  0  0  0  0  0  0
    0.7500   -6.4952    0.0000 C   0  0  0  0  0  0  0  0  0  0  0  0
    1.5000   -5.1962    0.0000 C   0  0  0  0  0  0  0  0  0  0  0  0
    0.7500   -3.8971    0.0000 C   0  0  0  0  0  0  0  0  0  0  0  0
    1.5000   -2.5981    0.0000 C   0  0  0  0  0  0  0  0  0  0  0  0
    0.7500   -1.2990    0.0000 C   0  0  0  0  0  0  0  0  0  0  0  0
    1.5000    0.0000    0.0000 C   0  0  0  0  0  0  0  0  0  0  0  0
    0.7500    1.2990    0.0000 C   0  0  0  0  0  0  0  0  0  0  0  0
   -0.7500    1.2990    0.0000 C   0  0  0  0  0  0  0  0  0  0  0  0
   -1.5000    0.0000    0.0000 N   0  0  0  0  0  0  0  0  0  0  0  0
   -0.7500   -1.2990    0.0000 C   0  0  0  0  0  0  0  0  0  0  0  0
   -1.5000   -2.5981    0.0000 N   0  0  0  0  0  0  0  0  0  0  0  0
   -0.7500   -3.8971    0.0000 C   0  0  0  0  0  0  0  0  0  0  0  0
   -1.5000   -5.1962    0.0000 C   0  0  0  0  0  0  0  0  0  0  0  0
   -3.0000   -5.1962    0.0000 C   0  0  0  0  0  0  0  0  0  0  0  0
   -3.7500   -6.4952    0.0000 C   0  0  0  0  0  0  0  0  0  0  0  0
   -3.0000   -7.7942    0.0000 C   0  0  0  0  0  0  0  0  0  0  0  0
   -3.7500   -9.0933    0.0000 C   0  0  0  0  0  0  0  0  0  0  0  0
   -5.2500   -9.0933    0.0000 N   0  0  0  0  0  0  0  0  0  0  0  0
   -6.0000   -7.7942    0.0000 C   0  0  0  0  0  0  0  0  0  0  0  0
   -7.5000   -7.7942    0.0000 C   0  0  0  0  0  0  0  0  0  0  0  0
   -8.2500   -9.0933    0.0000 C   0  0  0  0  0  0  0  0  0  0  0  0
   -9.7500   -9.0933    0.0000 C   0  0  0  0  0  0  0  0  0  0  0  0
  -10.6317  -10.3068    0.0000 C   0  0  0  0  0  0  0  0  0  0  0  0
  -12.0583   -9.8433    0.0000 C   0  0  0  0  0  0  0  0  0  0  0  0
  -13.2718  -10.7249    0.0000 C   0  0  0  0  0  0  0  0  0  0  0  0
  -14.6421  -10.1148    0.0000 C   0  0  0  0  0  0  0  0  0  0  0  0
  -15.8556  -10.9965    0.0000 C   0  0  0  0  0  0  0  0  0  0  0  0
  -15.6988  -12.4883    0.0000 N   0  0  0  0  0  0  0  0  0  0  0  0
  -14.3285  -13.0984    0.0000 C   0  0  0  0  0  0  0  0  0  0  0  0
  -13.1150  -12.2167    0.0000 C   0  0  0  0  0  0  0  0  0  0  0  0
  -12.0583   -8.3433    0.0000 N   0  0  0  0  0  0  0  0  0  0  0  0
  -10.6317   -7.8797    0.0000 N   0  0  0  0  0  0  0  0  0  0  0  0
   -7.5000  -10.3923    0.0000 C   0  0  0  0  0  0  0  0  0  0  0  0
   -6.0000  -10.3923    0.0000 C   0  0  0  0  0  0  0  0  0  0  0  0
   -1.5000   -7.7942    0.0000 C   0  0  0  0  0  0  0  0  0  0  0  0
   -0.7500   -6.4952    0.0000 C   0  0  0  0  0  0  0  0  0  0  0  0
    3.0000   -5.1962    0.0000 C   0  0  0  0  0  0  0  0  0  0  0  0
    3.7500   -6.4952    0.0000 C   0  0  0  0  0  0  0  0  0  0  0  0
  1  2  2  0
  2  3  1  0
  3  4  2  0
  4  5  1  0
  5  6  2  0
  6  7  1  0
  7  8  2  0
  8  9  1  0
  9 10  2  0
 10 11  1  0
 11 12  2  0
 12 13  1  0
 13 14  2  0
 14 15  1  0
 15 16  2  0
 16 17  1  0
 17 18  2  0
 18 19  1  0
 19 20  1  0
 20 21  1  0
 21 22  1  0
 22 23  1  0
 23 24  1  0
 24 25  1  0
 25 26  2  0
 26 27  1  0
 27 28  2  0
 28 29  1  0
 29 30  2  0
 30 31  1  0
 31 32  2  0
 26 33  1  0
 33 34  1  0
 23 35  1  0
 35 36  1  0
 18 37  1  0
 37 38  2  0
  4 39  1  0
 39 40  2  0
 40  1  1  0
 14  5  1  0
 38 15  1  0
 12  7  1  0
 36 20  1  0
 34 24  2  0
 32 27  1  0
M  END
>  <Compound_ID>  (115) 
CHEMBL261540

>  <Active>  (115) 
1

>  <Smiles>  (115) 
c1ccc(-c2cc3cccnc3nc2-c2ccc(CN3CCC(c4cc(-c5ccncc5)[nH]n4)CC3)cc2)cc1

>  <canonical_smi>  (115) 
c1ccc(-c2cc3cccnc3nc2-c2ccc(CN3CCC(c4cc(-c5ccncc5)[nH]n4)CC3)cc2)cc1

>  <Set>  (115) 
G2 active

>  <Set_type>  (115) 
Test

>  <MW>  (115) 
522.66

>  <HBD>  (115) 
1

>  <HBA>  (115) 
5

>  <NRB>  (115) 
6

>  <NR>  (115) 
7

>  <NAR>  (115) 
6

>  <PSA>  (115) 
70.59

>  <Standard Type>  (115) 
nan

>  <Standard Relation>  (115) 
nan

>  <Standard Units>  (115) 
nan

>  <Standard Value>  (115) 
nan

>  <Assay ChEMBL ID>  (115) 
nan

>  <Assay Description>  (115) 
nan

>  <BAO Label>  (115) 
nan

$$$$

     RDKit          2D

 40 46  0  0  0  0  0  0  0  0999 V2000
    3.0000   -7.7942    0.0000 C   0  0  0  0  0  0  0  0  0  0  0  0
    1.5000   -7.7942    0.0000 C   0  0  0  0  0  0  0  0  0  0  0  0
    0.7500   -6.4952    0.0000 C   0  0  0  0  0  0  0  0  0  0  0  0
    1.5000   -5.1962    0.0000 C   0  0  0  0  0  0  0  0  0  0  0  0
    0.7500   -3.8971    0.0000 C   0  0  0  0  0  0  0  0  0  0  0  0
    1.5000   -2.5981    0.0000 C   0  0  0  0  0  0  0  0  0  0  0  0
    0.7500   -1.2990    0.0000 C   0  0  0  0  0  0  0  0  0  0  0  0
    1.5000    0.0000    0.0000 C   0  0  0  0  0  0  0  0  0  0  0  0
    0.7500    1.2990    0.0000 C   0  0  0  0  0  0  0  0  0  0  0  0
   -0.7500    1.2990    0.0000 C   0  0  0  0  0  0  0  0  0  0  0  0
   -1.5000    0.0000    0.0000 N   0  0  0  0  0  0  0  0  0  0  0  0
   -0.7500   -1.2990    0.0000 C   0  0  0  0  0  0  0  0  0  0  0  0
   -1.5000   -2.5981    0.0000 N   0  0  0  0  0  0  0  0  0  0  0  0
   -0.7500   -3.8971    0.0000 C   0  0  0  0  0  0  0  0  0  0  0  0
   -1.5000   -5.1962    0.0000 C   0  0  0  0  0  0  0  0  0  0  0  0
   -3.0000   -5.1962    0.0000 C   0  0  0  0  0  0  0  0  0  0  0  0
   -3.7500   -6.4952    0.0000 C   0  0  0  0  0  0  0  0  0  0  0  0
   -3.0000   -7.7942    0.0000 C   0  0  0  0  0  0  0  0  0  0  0  0
   -3.7500   -9.0933    0.0000 C   0  0  0  0  0  0  0  0  0  0  0  0
   -5.2500   -9.0933    0.0000 N   0  0  0  0  0  0  0  0  0  0  0  0
   -6.0000   -7.7942    0.0000 C   0  0  0  0  0  0  0  0  0  0  0  0
   -7.5000   -7.7942    0.0000 C   0  0  0  0  0  0  0  0  0  0  0  0
   -8.2500   -9.0933    0.0000 C   0  0  0  0  0  0  0  0  0  0  0  0
   -9.7500   -9.0933    0.0000 C   0  0  0  0  0  0  0  0  0  0  0  0
  -10.6317  -10.3068    0.0000 C   0  0  0  0  0  0  0  0  0  0  0  0
  -12.0583   -9.8433    0.0000 C   0  0  0  0  0  0  0  0  0  0  0  0
  -13.2718  -10.7249    0.0000 C   0  0  0  0  0  0  0  0  0  0  0  0
  -14.6421  -10.1148    0.0000 C   0  0  0  0  0  0  0  0  0  0  0  0
  -15.8556  -10.9965    0.0000 C   0  0  0  0  0  0  0  0  0  0  0  0
  -15.6988  -12.4883    0.0000 C   0  0  0  0  0  0  0  0  0  0  0  0
  -14.3285  -13.0984    0.0000 C   0  0  0  0  0  0  0  0  0  0  0  0
  -13.1150  -12.2167    0.0000 N   0  0  0  0  0  0  0  0  0  0  0  0
  -12.0583   -8.3433    0.0000 N   0  0  0  0  0  0  0  0  0  0  0  0
  -10.6317   -7.8797    0.0000 N   0  0  0  0  0  0  0  0  0  0  0  0
   -7.5000  -10.3923    0.0000 C   0  0  0  0  0  0  0  0  0  0  0  0
   -6.0000  -10.3923    0.0000 C   0  0  0  0  0  0  0  0  0  0  0  0
   -1.5000   -7.7942    0.0000 C   0  0  0  0  0  0  0  0  0  0  0  0
   -0.7500   -6.4952    0.0000 C   0  0  0  0  0  0  0  0  0  0  0  0
    3.0000   -5.1962    0.0000 C   0  0  0  0  0  0  0  0  0  0  0  0
    3.7500   -6.4952    0.0000 C   0  0  0  0  0  0  0  0  0  0  0  0
  1  2  2  0
  2  3  1  0
  3  4  2  0
  4  5  1  0
  5  6  2  0
  6  7  1  0
  7  8  2  0
  8  9  1  0
  9 10  2  0
 10 11  1  0
 11 12  2  0
 12 13  1  0
 13 14  2  0
 14 15  1  0
 15 16  2  0
 16 17  1  0
 17 18  2  0
 18 19  1  0
 19 20  1  0
 20 21  1  0
 21 22  1  0
 22 23  1  0
 23 24  1  0
 24 25  1  0
 25 26  2  0
 26 27  1  0
 27 28  2  0
 28 29  1  0
 29 30  2  0
 30 31  1  0
 31 32  2  0
 26 33  1  0
 33 34  1  0
 23 35  1  0
 35 36  1  0
 18 37  1  0
 37 38  2  0
  4 39  1  0
 39 40  2  0
 40  1  1  0
 14  5  1  0
 38 15  1  0
 12  7  1  0
 36 20  1  0
 34 24  2  0
 32 27  1  0
M  END
>  <Compound_ID>  (116) 
CHEMBL259982

>  <Active>  (116) 
1

>  <Smiles>  (116) 
c1ccc(-c2cc3cccnc3nc2-c2ccc(CN3CCC(c4cc(-c5ccccn5)[nH]n4)CC3)cc2)cc1

>  <canonical_smi>  (116) 
c1ccc(-c2cc3cccnc3nc2-c2ccc(CN3CCC(c4cc(-c5ccccn5)[nH]n4)CC3)cc2)cc1

>  <Set>  (116) 
G2 active

>  <Set_type>  (116) 
Test

>  <MW>  (116) 
522.66

>  <HBD>  (116) 
1

>  <HBA>  (116) 
5

>  <NRB>  (116) 
6

>  <NR>  (116) 
7

>  <NAR>  (116) 
6

>  <PSA>  (116) 
70.59

>  <Standard Type>  (116) 
nan

>  <Standard Relation>  (116) 
nan

>  <Standard Units>  (116) 
nan

>  <Standard Value>  (116) 
nan

>  <Assay ChEMBL ID>  (116) 
nan

>  <Assay Description>  (116) 
nan

>  <BAO Label>  (116) 
nan

$$$$

     RDKit          2D

 40 45  0  0  0  0  0  0  0  0999 V2000
    3.7500   -1.2990    0.0000 C   0  0  0  0  0  0  0  0  0  0  0  0
    3.0000    0.0000    0.0000 S   0  0  0  0  0  0  0  0  0  0  0  0
    1.5000    0.0000    0.0000 C   0  0  0  0  0  0  0  0  0  0  0  0
    0.7500   -1.2990    0.0000 N   0  0  0  0  0  0  0  0  0  0  0  0
   -0.7500   -1.2990    0.0000 C   0  0  0  0  0  0  0  0  0  0  0  0
   -1.5000    0.0000    0.0000 C   0  0  0  0  0  0  0  0  0  0  0  0
   -3.0000    0.0000    0.0000 C   0  0  0  0  0  0  0  0  0  0  0  0
   -3.7500    1.2990    0.0000 C   0  0  0  0  0  0  0  0  0  0  0  0
   -5.2500    1.2990    0.0000 C   0  0  0  0  0  0  0  0  0  0  0  0
   -6.0000    2.5981    0.0000 C   0  0  0  0  0  0  0  0  0  0  0  0
   -7.5000    2.5981    0.0000 C   0  0  0  0  0  0  0  0  0  0  0  0
   -8.2500    1.2990    0.0000 C   0  0  0  0  0  0  0  0  0  0  0  0
   -7.5000    0.0000    0.0000 C   0  0  0  0  0  0  0  0  0  0  0  0
   -6.0000    0.0000    0.0000 C   0  0  0  0  0  0  0  0  0  0  0  0
   -3.0000    2.5981    0.0000 C   0  0  0  0  0  0  0  0  0  0  0  0
   -3.7500    3.8971    0.0000 C   0  0  0  0  0  0  0  0  0  0  0  0
   -3.0000    5.1962    0.0000 C   0  0  0  0  0  0  0  0  0  0  0  0
   -3.7500    6.4952    0.0000 C   0  0  0  0  0  0  0  0  0  0  0  0
   -5.2500    6.4952    0.0000 C   0  0  0  0  0  0  0  0  0  0  0  0
   -6.0000    7.7942    0.0000 C   0  0  0  0  0  0  0  0  0  0  0  0
   -5.2500    9.0933    0.0000 N   0  0  0  0  0  0  0  0  0  0  0  0
   -3.7500    9.0933    0.0000 C   0  0  0  0  0  0  0  0  0  0  0  0
   -3.0000   10.3923    0.0000 C   0  0  0  0  0  0  0  0  0  0  0  0
   -3.7500   11.6913    0.0000 C   0  0  0  0  0  0  0  0  0  0  0  0
   -3.0000   12.9904    0.0000 C   0  0  0  0  0  0  0  0  0  0  0  0
   -3.7500   14.2894    0.0000 O   0  0  0  0  0  0  0  0  0  0  0  0
   -1.5000   12.9904    0.0000 N   0  0  0  0  0  0  0  0  0  0  0  0
   -0.7500   14.2894    0.0000 C   0  0  0  0  0  0  0  0  0  0  0  0
    0.7500   14.2894    0.0000 C   0  0  0  0  0  0  0  0  0  0  0  0
    1.5000   15.5885    0.0000 C   0  0  0  0  0  0  0  0  0  0  0  0
    0.7500   16.8875    0.0000 N   0  0  0  0  0  0  0  0  0  0  0  0
   -0.7500   16.8875    0.0000 C   0  0  0  0  0  0  0  0  0  0  0  0
   -1.5000   15.5885    0.0000 C   0  0  0  0  0  0  0  0  0  0  0  0
   -5.2500   11.6913    0.0000 C   0  0  0  0  0  0  0  0  0  0  0  0
   -6.0000   10.3923    0.0000 C   0  0  0  0  0  0  0  0  0  0  0  0
   -6.0000    5.1962    0.0000 C   0  0  0  0  0  0  0  0  0  0  0  0
   -5.2500    3.8971    0.0000 C   0  0  0  0  0  0  0  0  0  0  0  0
   -1.5000    2.5981    0.0000 N   0  0  0  0  0  0  0  0  0  0  0  0
   -0.7500    1.2990    0.0000 C   0  0  0  0  0  0  0  0  0  0  0  0
    0.7500    1.2990    0.0000 N   0  0  0  0  0  0  0  0  0  0  0  0
  1  2  1  0
  2  3  1  0
  3  4  2  0
  4  5  1  0
  5  6  2  0
  6  7  1  0
  7  8  2  0
  8  9  1  0
  9 10  2  0
 10 11  1  0
 11 12  2  0
 12 13  1  0
 13 14  2  0
  8 15  1  0
 15 16  1  0
 16 17  2  0
 17 18  1  0
 18 19  2  0
 19 20  1  0
 20 21  1  0
 21 22  1  0
 22 23  1  0
 23 24  1  0
 24 25  1  0
 25 26  2  0
 25 27  1  0
 27 28  1  0
 28 29  2  0
 29 30  1  0
 30 31  2  0
 31 32  1  0
 32 33  2  0
 24 34  1  0
 34 35  1  0
 19 36  1  0
 36 37  2  0
 15 38  2  0
 38 39  1  0
 39 40  2  0
 40  3  1  0
 39  6  1  0
 14  9  1  0
 37 16  1  0
 35 21  1  0
 33 28  1  0
M  END
>  <Compound_ID>  (117) 
CHEMBL252856

>  <Active>  (117) 
1

>  <Smiles>  (117) 
CSc1ncc2cc(-c3ccccc3)c(-c3ccc(CN4CCC(C(=O)Nc5ccncc5)CC4)cc3)nc2n1

>  <canonical_smi>  (117) 
CSc1ncc2cc(-c3ccccc3)c(-c3ccc(CN4CCC(C(=O)Nc5ccncc5)CC4)cc3)nc2n1

>  <Set>  (117) 
G2 active

>  <Set_type>  (117) 
Test

>  <MW>  (117) 
546.7

>  <HBD>  (117) 
1

>  <HBA>  (117) 
7

>  <NRB>  (117) 
7

>  <NR>  (117) 
6

>  <NAR>  (117) 
5

>  <PSA>  (117) 
83.9

>  <Standard Type>  (117) 
nan

>  <Standard Relation>  (117) 
nan

>  <Standard Units>  (117) 
nan

>  <Standard Value>  (117) 
nan

>  <Assay ChEMBL ID>  (117) 
nan

>  <Assay Description>  (117) 
nan

>  <BAO Label>  (117) 
nan

$$$$
