
     RDKit          2D

 40 45  0  0  0  0  0  0  0  0999 V2000
    5.4933   -4.1162    0.0000 O   0  0  0  0  0  0  0  0  0  0  0  0
    4.3786   -5.1199    0.0000 C   0  0  0  0  0  0  0  0  0  0  0  0
    2.9520   -4.6564    0.0000 C   0  0  0  0  0  0  0  0  0  0  0  0
    2.6401   -3.1891    0.0000 C   0  0  0  0  0  0  0  0  0  0  0  0
    1.2135   -2.7256    0.0000 N   0  0  0  0  0  0  0  0  0  0  0  0
    0.7500   -1.2990    0.0000 C   0  0  0  0  0  0  0  0  0  0  0  0
    1.5000    0.0000    0.0000 C   0  0  0  0  0  0  0  0  0  0  0  0
    0.7500    1.2990    0.0000 C   0  0  0  0  0  0  0  0  0  0  0  0
   -0.7500    1.2990    0.0000 C   0  0  0  0  0  0  0  0  0  0  0  0
   -1.5000    2.5981    0.0000 O   0  0  0  0  0  0  0  0  0  0  0  0
   -1.5000    0.0000    0.0000 C   0  0  0  0  0  0  0  0  0  0  0  0
   -0.7500   -1.2990    0.0000 C   0  0  0  0  0  0  0  0  0  0  0  0
   -1.2135   -2.7256    0.0000 C   0  0  0  0  0  0  0  0  0  0  0  0
   -2.5838   -3.3357    0.0000 C   0  0  0  0  0  0  0  0  0  0  0  0
   -2.7406   -4.8275    0.0000 C   0  0  0  0  0  0  0  0  0  0  0  0
   -1.5271   -5.7092    0.0000 C   0  0  0  0  0  0  0  0  0  0  0  0
   -1.6839   -7.2010    0.0000 C   0  0  0  0  0  0  0  0  0  0  0  0
   -3.0542   -7.8111    0.0000 C   0  0  0  0  0  0  0  0  0  0  0  0
   -3.2110   -9.3029    0.0000 C   0  0  0  0  0  0  0  0  0  0  0  0
   -1.9975  -10.1845    0.0000 C   0  0  0  0  0  0  0  0  0  0  0  0
   -0.6272   -9.5744    0.0000 C   0  0  0  0  0  0  0  0  0  0  0  0
   -0.4704   -8.0826    0.0000 C   0  0  0  0  0  0  0  0  0  0  0  0
    0.8999   -7.4725    0.0000 Cl  0  0  0  0  0  0  0  0  0  0  0  0
   -0.1568   -5.0991    0.0000 C   0  0  0  0  0  0  0  0  0  0  0  0
   -0.0000   -3.6073    0.0000 C   0  0  0  0  0  0  0  0  0  0  0  0
   -4.2079   -5.1394    0.0000 C   0  0  0  0  0  0  0  0  0  0  0  0
   -4.8180   -6.5097    0.0000 O   0  0  0  0  0  0  0  0  0  0  0  0
   -4.9579   -3.8403    0.0000 N   0  0  0  0  0  0  0  0  0  0  0  0
   -3.9542   -2.7256    0.0000 C   0  0  0  0  0  0  0  0  0  0  0  0
   -4.2660   -1.2584    0.0000 O   0  0  0  0  0  0  0  0  0  0  0  0
    4.6904   -6.5871    0.0000 N   0  0  0  0  0  0  0  0  0  0  0  0
    6.1170   -7.0506    0.0000 S   0  0  0  0  0  0  0  0  0  0  0  0
    6.5805   -5.6241    0.0000 O   0  0  0  0  0  0  0  0  0  0  0  0
    5.6535   -8.4772    0.0000 O   0  0  0  0  0  0  0  0  0  0  0  0
    7.5436   -7.5142    0.0000 C   0  0  0  0  0  0  0  0  0  0  0  0
    7.8555   -8.9814    0.0000 C   0  0  0  0  0  0  0  0  0  0  0  0
    9.2821   -9.4449    0.0000 C   0  0  0  0  0  0  0  0  0  0  0  0
   10.3968   -8.4412    0.0000 C   0  0  0  0  0  0  0  0  0  0  0  0
   10.0849   -6.9740    0.0000 C   0  0  0  0  0  0  0  0  0  0  0  0
    8.6583   -6.5105    0.0000 C   0  0  0  0  0  0  0  0  0  0  0  0
  1  2  2  0
  2  3  1  0
  3  4  1  0
  4  5  1  0
  5  6  1  0
  6  7  2  0
  7  8  1  0
  8  9  2  0
  9 10  1  0
  9 11  1  0
 11 12  2  0
 12 13  1  0
 13 14  2  0
 14 15  1  0
 15 16  2  0
 16 17  1  0
 17 18  2  0
 18 19  1  0
 19 20  2  0
 20 21  1  0
 21 22  2  0
 22 23  1  0
 16 24  1  0
 24 25  2  0
 15 26  1  0
 26 27  2  0
 26 28  1  0
 28 29  1  0
 29 30  2  0
  2 31  1  0
 31 32  1  0
 32 33  2  0
 32 34  2  0
 32 35  1  0
 35 36  2  0
 36 37  1  0
 37 38  2  0
 38 39  1  0
 39 40  2  0
 25  5  1  0
 40 35  1  0
 12  6  1  0
 25 13  1  0
 29 14  1  0
 22 17  1  0
M  END
>  <Compound_ID>  (1) 
CHEMBL515352

>  <Active>  (1) 
1

>  <Smiles>  (1) 
O=C(CCn1c2ccc(O)cc2c2c3c(c(-c4ccccc4Cl)cc21)C(=O)NC3=O)NS(=O)(=O)c1ccccc1

>  <canonical_smi>  (1) 
O=C(CCn1c2ccc(O)cc2c2c3c(c(-c4ccccc4Cl)cc21)C(=O)NC3=O)NS(=O)(=O)c1ccccc1

>  <Set>  (1) 
G1 active

>  <Set_type>  (1) 
G1

>  <MW>  (1) 
574.01

>  <HBD>  (1) 
3

>  <HBA>  (1) 
6

>  <NRB>  (1) 
6

>  <NR>  (1) 
6

>  <NAR>  (1) 
5

>  <PSA>  (1) 
134.57

>  <Standard Type>  (1) 
nan

>  <Standard Relation>  (1) 
nan

>  <Standard Units>  (1) 
nan

>  <Standard Value>  (1) 
nan

>  <Assay ChEMBL ID>  (1) 
nan

>  <Assay Description>  (1) 
nan

>  <BAO Label>  (1) 
nan

$$$$

     RDKit          2D

 30 34  0  0  0  0  0  0  0  0999 V2000
    4.8180   -6.5097    0.0000 O   0  0  0  0  0  0  0  0  0  0  0  0
    4.2079   -5.1394    0.0000 C   0  0  0  0  0  0  0  0  0  0  0  0
    4.9579   -3.8403    0.0000 N   0  0  0  0  0  0  0  0  0  0  0  0
    3.9542   -2.7256    0.0000 C   0  0  0  0  0  0  0  0  0  0  0  0
    4.2660   -1.2584    0.0000 O   0  0  0  0  0  0  0  0  0  0  0  0
    2.5838   -3.3357    0.0000 C   0  0  0  0  0  0  0  0  0  0  0  0
    2.7406   -4.8275    0.0000 C   0  0  0  0  0  0  0  0  0  0  0  0
    1.5271   -5.7092    0.0000 C   0  0  0  0  0  0  0  0  0  0  0  0
    1.6839   -7.2010    0.0000 C   0  0  0  0  0  0  0  0  0  0  0  0
    3.0542   -7.8111    0.0000 C   0  0  0  0  0  0  0  0  0  0  0  0
    3.2110   -9.3029    0.0000 C   0  0  0  0  0  0  0  0  0  0  0  0
    1.9975  -10.1845    0.0000 C   0  0  0  0  0  0  0  0  0  0  0  0
    0.6272   -9.5744    0.0000 C   0  0  0  0  0  0  0  0  0  0  0  0
    0.4704   -8.0826    0.0000 C   0  0  0  0  0  0  0  0  0  0  0  0
   -0.8999   -7.4725    0.0000 Cl  0  0  0  0  0  0  0  0  0  0  0  0
    0.1568   -5.0991    0.0000 C   0  0  0  0  0  0  0  0  0  0  0  0
    0.0000   -3.6073    0.0000 C   0  0  0  0  0  0  0  0  0  0  0  0
    1.2135   -2.7256    0.0000 C   0  0  0  0  0  0  0  0  0  0  0  0
    0.7500   -1.2990    0.0000 C   0  0  0  0  0  0  0  0  0  0  0  0
    1.5000    0.0000    0.0000 C   0  0  0  0  0  0  0  0  0  0  0  0
    0.7500    1.2990    0.0000 C   0  0  0  0  0  0  0  0  0  0  0  0
    1.5000    2.5981    0.0000 O   0  0  0  0  0  0  0  0  0  0  0  0
   -0.7500    1.2990    0.0000 C   0  0  0  0  0  0  0  0  0  0  0  0
   -1.5000    0.0000    0.0000 C   0  0  0  0  0  0  0  0  0  0  0  0
   -0.7500   -1.2990    0.0000 C   0  0  0  0  0  0  0  0  0  0  0  0
   -1.2135   -2.7256    0.0000 N   0  0  0  0  0  0  0  0  0  0  0  0
   -2.6401   -3.1891    0.0000 C   0  0  0  0  0  0  0  0  0  0  0  0
   -3.7548   -2.1855    0.0000 C   0  0  0  0  0  0  0  0  0  0  0  0
   -5.1814   -2.6490    0.0000 C   0  0  0  0  0  0  0  0  0  0  0  0
   -6.2961   -1.6453    0.0000 O   0  0  0  0  0  0  0  0  0  0  0  0
  1  2  2  0
  2  3  1  0
  3  4  1  0
  4  5  2  0
  4  6  1  0
  6  7  2  0
  7  8  1  0
  8  9  1  0
  9 10  2  0
 10 11  1  0
 11 12  2  0
 12 13  1  0
 13 14  2  0
 14 15  1  0
  8 16  2  0
 16 17  1  0
 17 18  2  0
 18 19  1  0
 19 20  2  0
 20 21  1  0
 21 22  1  0
 21 23  2  0
 23 24  1  0
 24 25  2  0
 25 26  1  0
 26 27  1  0
 27 28  1  0
 28 29  1  0
 29 30  1  0
  7  2  1  0
 14  9  1  0
 26 17  1  0
 18  6  1  0
 25 19  1  0
M  END
>  <Compound_ID>  (2) 
CHEMBL411662

>  <Active>  (2) 
1

>  <Smiles>  (2) 
O=C1NC(=O)c2c1c(-c1ccccc1Cl)cc1c2c2cc(O)ccc2n1CCCO

>  <canonical_smi>  (2) 
O=C1NC(=O)c2c1c(-c1ccccc1Cl)cc1c2c2cc(O)ccc2n1CCCO

>  <Set>  (2) 
G1 active

>  <Set_type>  (2) 
G1

>  <MW>  (2) 
420.85

>  <HBD>  (2) 
3

>  <HBA>  (2) 
4

>  <NRB>  (2) 
4

>  <NR>  (2) 
5

>  <NAR>  (2) 
4

>  <PSA>  (2) 
91.56

>  <Standard Type>  (2) 
nan

>  <Standard Relation>  (2) 
nan

>  <Standard Units>  (2) 
nan

>  <Standard Value>  (2) 
nan

>  <Assay ChEMBL ID>  (2) 
nan

>  <Assay Description>  (2) 
nan

>  <BAO Label>  (2) 
nan

$$$$

     RDKit          2D

 35 40  0  0  0  0  0  0  0  0999 V2000
    4.8180   -6.5097    0.0000 O   0  0  0  0  0  0  0  0  0  0  0  0
    4.2079   -5.1394    0.0000 C   0  0  0  0  0  0  0  0  0  0  0  0
    4.9579   -3.8403    0.0000 N   0  0  0  0  0  0  0  0  0  0  0  0
    3.9542   -2.7256    0.0000 C   0  0  0  0  0  0  0  0  0  0  0  0
    4.2660   -1.2584    0.0000 O   0  0  0  0  0  0  0  0  0  0  0  0
    2.5838   -3.3357    0.0000 C   0  0  0  0  0  0  0  0  0  0  0  0
    2.7406   -4.8275    0.0000 C   0  0  0  0  0  0  0  0  0  0  0  0
    1.5271   -5.7092    0.0000 C   0  0  0  0  0  0  0  0  0  0  0  0
    1.6839   -7.2010    0.0000 C   0  0  0  0  0  0  0  0  0  0  0  0
    3.0542   -7.8111    0.0000 C   0  0  0  0  0  0  0  0  0  0  0  0
    3.2110   -9.3029    0.0000 C   0  0  0  0  0  0  0  0  0  0  0  0
    1.9975  -10.1845    0.0000 C   0  0  0  0  0  0  0  0  0  0  0  0
    0.6272   -9.5744    0.0000 C   0  0  0  0  0  0  0  0  0  0  0  0
    0.4704   -8.0826    0.0000 C   0  0  0  0  0  0  0  0  0  0  0  0
   -0.8999   -7.4725    0.0000 Cl  0  0  0  0  0  0  0  0  0  0  0  0
    0.1568   -5.0991    0.0000 C   0  0  0  0  0  0  0  0  0  0  0  0
   -0.0000   -3.6073    0.0000 C   0  0  0  0  0  0  0  0  0  0  0  0
    1.2135   -2.7256    0.0000 C   0  0  0  0  0  0  0  0  0  0  0  0
    0.7500   -1.2990    0.0000 C   0  0  0  0  0  0  0  0  0  0  0  0
    1.5000    0.0000    0.0000 C   0  0  0  0  0  0  0  0  0  0  0  0
    0.7500    1.2990    0.0000 C   0  0  0  0  0  0  0  0  0  0  0  0
    1.5000    2.5981    0.0000 O   0  0  0  0  0  0  0  0  0  0  0  0
   -0.7500    1.2990    0.0000 C   0  0  0  0  0  0  0  0  0  0  0  0
   -1.5000    0.0000    0.0000 C   0  0  0  0  0  0  0  0  0  0  0  0
   -0.7500   -1.2990    0.0000 C   0  0  0  0  0  0  0  0  0  0  0  0
   -1.2135   -2.7256    0.0000 N   0  0  0  0  0  0  0  0  0  0  0  0
   -2.6401   -3.1891    0.0000 C   0  0  0  0  0  0  0  0  0  0  0  0
   -3.7548   -2.1855    0.0000 C   0  0  0  0  0  0  0  0  0  0  0  0
   -5.1814   -2.6490    0.0000 S   0  0  0  0  0  0  0  0  0  0  0  0
   -5.4933   -4.1162    0.0000 O   0  0  0  0  0  0  0  0  0  0  0  0
   -6.2961   -1.6453    0.0000 N   0  0  0  0  0  0  0  0  0  0  0  0
   -7.7634   -1.9571    0.0000 C   0  0  0  0  0  0  0  0  0  0  0  0
   -8.5134   -0.6581    0.0000 C   0  0  0  0  0  0  0  0  0  0  0  0
   -7.5097    0.4566    0.0000 N   0  0  0  0  0  0  0  0  0  0  0  0
   -6.1393   -0.1535    0.0000 N   0  0  0  0  0  0  0  0  0  0  0  0
  1  2  2  0
  2  3  1  0
  3  4  1  0
  4  5  2  0
  4  6  1  0
  6  7  2  0
  7  8  1  0
  8  9  1  0
  9 10  2  0
 10 11  1  0
 11 12  2  0
 12 13  1  0
 13 14  2  0
 14 15  1  0
  8 16  2  0
 16 17  1  0
 17 18  2  0
 18 19  1  0
 19 20  2  0
 20 21  1  0
 21 22  1  0
 21 23  2  0
 23 24  1  0
 24 25  2  0
 25 26  1  0
 26 27  1  0
 27 28  1  0
 28 29  1  0
 29 30  2  0
 29 31  1  0
 31 32  1  0
 32 33  2  0
 33 34  1  0
 34 35  2  0
  7  2  1  0
 14  9  1  0
 26 17  1  0
 35 31  1  0
 18  6  1  0
 25 19  1  0
M  END
>  <Compound_ID>  (3) 
CHEMBL486517

>  <Active>  (3) 
1

>  <Smiles>  (3) 
O=C1NC(=O)c2c1c(-c1ccccc1Cl)cc1c2c2cc(O)ccc2n1CCS(=O)n1ccnn1

>  <canonical_smi>  (3) 
O=C1NC(=O)c2c1c(-c1ccccc1Cl)cc1c2c2cc(O)ccc2n1CCS(=O)n1ccnn1

>  <Set>  (3) 
G1 active

>  <Set_type>  (3) 
G1

>  <MW>  (3) 
505.94

>  <HBD>  (3) 
2

>  <HBA>  (3) 
6

>  <NRB>  (3) 
5

>  <NR>  (3) 
6

>  <NAR>  (3) 
5

>  <PSA>  (3) 
119.11

>  <Standard Type>  (3) 
nan

>  <Standard Relation>  (3) 
nan

>  <Standard Units>  (3) 
nan

>  <Standard Value>  (3) 
nan

>  <Assay ChEMBL ID>  (3) 
nan

>  <Assay Description>  (3) 
nan

>  <BAO Label>  (3) 
nan

$$$$

     RDKit          2D

 35 40  0  0  0  0  0  0  0  0999 V2000
    4.8180   -6.5097    0.0000 O   0  0  0  0  0  0  0  0  0  0  0  0
    4.2079   -5.1394    0.0000 C   0  0  0  0  0  0  0  0  0  0  0  0
    4.9579   -3.8403    0.0000 N   0  0  0  0  0  0  0  0  0  0  0  0
    3.9542   -2.7256    0.0000 C   0  0  0  0  0  0  0  0  0  0  0  0
    4.2660   -1.2584    0.0000 O   0  0  0  0  0  0  0  0  0  0  0  0
    2.5838   -3.3357    0.0000 C   0  0  0  0  0  0  0  0  0  0  0  0
    2.7406   -4.8275    0.0000 C   0  0  0  0  0  0  0  0  0  0  0  0
    1.5271   -5.7092    0.0000 C   0  0  0  0  0  0  0  0  0  0  0  0
    1.6839   -7.2010    0.0000 C   0  0  0  0  0  0  0  0  0  0  0  0
    3.0542   -7.8111    0.0000 C   0  0  0  0  0  0  0  0  0  0  0  0
    3.2110   -9.3029    0.0000 C   0  0  0  0  0  0  0  0  0  0  0  0
    1.9975  -10.1845    0.0000 C   0  0  0  0  0  0  0  0  0  0  0  0
    0.6272   -9.5744    0.0000 C   0  0  0  0  0  0  0  0  0  0  0  0
    0.4704   -8.0826    0.0000 C   0  0  0  0  0  0  0  0  0  0  0  0
   -0.8999   -7.4725    0.0000 Cl  0  0  0  0  0  0  0  0  0  0  0  0
    0.1568   -5.0991    0.0000 C   0  0  0  0  0  0  0  0  0  0  0  0
   -0.0000   -3.6073    0.0000 C   0  0  0  0  0  0  0  0  0  0  0  0
    1.2135   -2.7256    0.0000 C   0  0  0  0  0  0  0  0  0  0  0  0
    0.7500   -1.2990    0.0000 C   0  0  0  0  0  0  0  0  0  0  0  0
    1.5000    0.0000    0.0000 C   0  0  0  0  0  0  0  0  0  0  0  0
    0.7500    1.2990    0.0000 C   0  0  0  0  0  0  0  0  0  0  0  0
    1.5000    2.5981    0.0000 O   0  0  0  0  0  0  0  0  0  0  0  0
   -0.7500    1.2990    0.0000 C   0  0  0  0  0  0  0  0  0  0  0  0
   -1.5000    0.0000    0.0000 C   0  0  0  0  0  0  0  0  0  0  0  0
   -0.7500   -1.2990    0.0000 C   0  0  0  0  0  0  0  0  0  0  0  0
   -1.2135   -2.7256    0.0000 N   0  0  0  0  0  0  0  0  0  0  0  0
   -2.6401   -3.1891    0.0000 C   0  0  0  0  0  0  0  0  0  0  0  0
   -3.7548   -2.1855    0.0000 C   0  0  0  0  0  0  0  0  0  0  0  0
   -5.1814   -2.6490    0.0000 S   0  0  0  0  0  0  0  0  0  0  0  0
   -5.4933   -4.1162    0.0000 O   0  0  0  0  0  0  0  0  0  0  0  0
   -6.2961   -1.6453    0.0000 C   0  0  0  0  0  0  0  0  0  0  0  0
   -7.7634   -1.9571    0.0000 N   0  0  0  0  0  0  0  0  0  0  0  0
   -8.5134   -0.6581    0.0000 N   0  0  0  0  0  0  0  0  0  0  0  0
   -7.5097    0.4566    0.0000 C   0  0  0  0  0  0  0  0  0  0  0  0
   -6.1393   -0.1535    0.0000 N   0  0  0  0  0  0  0  0  0  0  0  0
  1  2  2  0
  2  3  1  0
  3  4  1  0
  4  5  2  0
  4  6  1  0
  6  7  2  0
  7  8  1  0
  8  9  1  0
  9 10  2  0
 10 11  1  0
 11 12  2  0
 12 13  1  0
 13 14  2  0
 14 15  1  0
  8 16  2  0
 16 17  1  0
 17 18  2  0
 18 19  1  0
 19 20  2  0
 20 21  1  0
 21 22  1  0
 21 23  2  0
 23 24  1  0
 24 25  2  0
 25 26  1  0
 26 27  1  0
 27 28  1  0
 28 29  1  0
 29 30  2  0
 29 31  1  0
 31 32  2  0
 32 33  1  0
 33 34  2  0
 34 35  1  0
  7  2  1  0
 14  9  1  0
 26 17  1  0
 35 31  1  0
 18  6  1  0
 25 19  1  0
M  END
>  <Compound_ID>  (4) 
CHEMBL472208

>  <Active>  (4) 
1

>  <Smiles>  (4) 
O=C1NC(=O)c2c1c(-c1ccccc1Cl)cc1c2c2cc(O)ccc2n1CCS(=O)c1nnc[nH]1

>  <canonical_smi>  (4) 
O=C1NC(=O)c2c1c(-c1ccccc1Cl)cc1c2c2cc(O)ccc2n1CCS(=O)c1nnc[nH]1

>  <Set>  (4) 
G1 active

>  <Set_type>  (4) 
G1

>  <MW>  (4) 
505.94

>  <HBD>  (4) 
3

>  <HBA>  (4) 
6

>  <NRB>  (4) 
5

>  <NR>  (4) 
6

>  <NAR>  (4) 
5

>  <PSA>  (4) 
129.97

>  <Standard Type>  (4) 
nan

>  <Standard Relation>  (4) 
nan

>  <Standard Units>  (4) 
nan

>  <Standard Value>  (4) 
nan

>  <Assay ChEMBL ID>  (4) 
nan

>  <Assay Description>  (4) 
nan

>  <BAO Label>  (4) 
nan

$$$$

     RDKit          2D

 26 30  0  0  0  0  0  0  0  0999 V2000
   -4.8180   -6.5097    0.0000 O   0  0  0  0  0  0  0  0  0  0  0  0
   -4.2079   -5.1394    0.0000 C   0  0  0  0  0  0  0  0  0  0  0  0
   -4.9579   -3.8403    0.0000 N   0  0  0  0  0  0  0  0  0  0  0  0
   -3.9542   -2.7256    0.0000 C   0  0  0  0  0  0  0  0  0  0  0  0
   -4.2660   -1.2584    0.0000 O   0  0  0  0  0  0  0  0  0  0  0  0
   -2.5838   -3.3357    0.0000 C   0  0  0  0  0  0  0  0  0  0  0  0
   -2.7406   -4.8275    0.0000 C   0  0  0  0  0  0  0  0  0  0  0  0
   -1.5271   -5.7092    0.0000 C   0  0  0  0  0  0  0  0  0  0  0  0
   -1.6839   -7.2010    0.0000 C   0  0  0  0  0  0  0  0  0  0  0  0
   -3.0542   -7.8111    0.0000 C   0  0  0  0  0  0  0  0  0  0  0  0
   -3.2110   -9.3029    0.0000 C   0  0  0  0  0  0  0  0  0  0  0  0
   -1.9975  -10.1845    0.0000 C   0  0  0  0  0  0  0  0  0  0  0  0
   -0.6272   -9.5744    0.0000 C   0  0  0  0  0  0  0  0  0  0  0  0
   -0.4704   -8.0826    0.0000 C   0  0  0  0  0  0  0  0  0  0  0  0
    0.8999   -7.4725    0.0000 Cl  0  0  0  0  0  0  0  0  0  0  0  0
   -0.1568   -5.0991    0.0000 C   0  0  0  0  0  0  0  0  0  0  0  0
   -0.0000   -3.6073    0.0000 C   0  0  0  0  0  0  0  0  0  0  0  0
    1.2135   -2.7256    0.0000 N   0  0  0  0  0  0  0  0  0  0  0  0
    0.7500   -1.2990    0.0000 C   0  0  0  0  0  0  0  0  0  0  0  0
    1.5000    0.0000    0.0000 C   0  0  0  0  0  0  0  0  0  0  0  0
    0.7500    1.2990    0.0000 C   0  0  0  0  0  0  0  0  0  0  0  0
   -0.7500    1.2990    0.0000 C   0  0  0  0  0  0  0  0  0  0  0  0
   -1.5000    2.5981    0.0000 O   0  0  0  0  0  0  0  0  0  0  0  0
   -1.5000    0.0000    0.0000 C   0  0  0  0  0  0  0  0  0  0  0  0
   -0.7500   -1.2990    0.0000 C   0  0  0  0  0  0  0  0  0  0  0  0
   -1.2135   -2.7256    0.0000 C   0  0  0  0  0  0  0  0  0  0  0  0
  1  2  2  0
  2  3  1  0
  3  4  1  0
  4  5  2  0
  4  6  1  0
  6  7  2  0
  7  8  1  0
  8  9  1  0
  9 10  2  0
 10 11  1  0
 11 12  2  0
 12 13  1  0
 13 14  2  0
 14 15  1  0
  8 16  2  0
 16 17  1  0
 17 18  1  0
 18 19  1  0
 19 20  2  0
 20 21  1  0
 21 22  2  0
 22 23  1  0
 22 24  1  0
 24 25  2  0
 25 26  1  0
  7  2  1  0
 14  9  1  0
 26 17  2  0
 26  6  1  0
 25 19  1  0
M  END
>  <Compound_ID>  (5) 
CHEMBL379975

>  <Active>  (5) 
1

>  <Smiles>  (5) 
O=C1NC(=O)c2c1c(-c1ccccc1Cl)cc1[nH]c3ccc(O)cc3c21

>  <canonical_smi>  (5) 
O=C1NC(=O)c2c1c(-c1ccccc1Cl)cc1[nH]c3ccc(O)cc3c21

>  <Set>  (5) 
G1 active

>  <Set_type>  (5) 
G1

>  <MW>  (5) 
362.77

>  <HBD>  (5) 
3

>  <HBA>  (5) 
3

>  <NRB>  (5) 
1

>  <NR>  (5) 
5

>  <NAR>  (5) 
4

>  <PSA>  (5) 
82.19

>  <Standard Type>  (5) 
nan

>  <Standard Relation>  (5) 
nan

>  <Standard Units>  (5) 
nan

>  <Standard Value>  (5) 
nan

>  <Assay ChEMBL ID>  (5) 
nan

>  <Assay Description>  (5) 
nan

>  <BAO Label>  (5) 
nan

$$$$

     RDKit          2D

 37 42  0  0  0  0  0  0  0  0999 V2000
    2.6401   -3.1891    0.0000 C   0  0  0  0  0  0  0  0  0  0  0  0
    1.2135   -2.7256    0.0000 N   0  0  0  0  0  0  0  0  0  0  0  0
    0.7500   -1.2990    0.0000 C   0  0  0  0  0  0  0  0  0  0  0  0
    1.5000    0.0000    0.0000 C   0  0  0  0  0  0  0  0  0  0  0  0
    0.7500    1.2990    0.0000 C   0  0  0  0  0  0  0  0  0  0  0  0
    1.5000    2.5981    0.0000 C   0  0  0  0  0  0  0  0  0  0  0  0
    0.7500    3.8971    0.0000 O   0  0  0  0  0  0  0  0  0  0  0  0
    3.0000    2.5981    0.0000 N   0  0  0  0  0  0  0  0  0  0  0  0
    3.7500    3.8971    0.0000 C   0  0  0  0  0  0  0  0  0  0  0  0
    5.2500    3.8971    0.0000 C   0  0  0  0  0  0  0  0  0  0  0  0
    6.0000    5.1962    0.0000 N   0  0  0  0  0  0  0  0  0  0  0  0
    5.3899    6.5665    0.0000 C   0  0  0  0  0  0  0  0  0  0  0  0
    6.5046    7.5702    0.0000 C   0  0  0  0  0  0  0  0  0  0  0  0
    7.8037    6.8202    0.0000 C   0  0  0  0  0  0  0  0  0  0  0  0
    7.4918    5.3529    0.0000 C   0  0  0  0  0  0  0  0  0  0  0  0
   -0.7500    1.2990    0.0000 C   0  0  0  0  0  0  0  0  0  0  0  0
   -1.5000    2.5981    0.0000 O   0  0  0  0  0  0  0  0  0  0  0  0
   -1.5000    0.0000    0.0000 C   0  0  0  0  0  0  0  0  0  0  0  0
   -0.7500   -1.2990    0.0000 C   0  0  0  0  0  0  0  0  0  0  0  0
   -1.2135   -2.7256    0.0000 C   0  0  0  0  0  0  0  0  0  0  0  0
   -2.5838   -3.3357    0.0000 C   0  0  0  0  0  0  0  0  0  0  0  0
   -2.7406   -4.8275    0.0000 C   0  0  0  0  0  0  0  0  0  0  0  0
   -1.5271   -5.7092    0.0000 C   0  0  0  0  0  0  0  0  0  0  0  0
   -1.6839   -7.2010    0.0000 C   0  0  0  0  0  0  0  0  0  0  0  0
   -3.0542   -7.8111    0.0000 C   0  0  0  0  0  0  0  0  0  0  0  0
   -3.2110   -9.3029    0.0000 C   0  0  0  0  0  0  0  0  0  0  0  0
   -1.9975  -10.1845    0.0000 C   0  0  0  0  0  0  0  0  0  0  0  0
   -0.6272   -9.5744    0.0000 C   0  0  0  0  0  0  0  0  0  0  0  0
   -0.4704   -8.0826    0.0000 C   0  0  0  0  0  0  0  0  0  0  0  0
    0.8999   -7.4725    0.0000 Cl  0  0  0  0  0  0  0  0  0  0  0  0
   -0.1568   -5.0991    0.0000 C   0  0  0  0  0  0  0  0  0  0  0  0
   -0.0000   -3.6073    0.0000 C   0  0  0  0  0  0  0  0  0  0  0  0
   -4.2079   -5.1394    0.0000 C   0  0  0  0  0  0  0  0  0  0  0  0
   -4.8180   -6.5097    0.0000 O   0  0  0  0  0  0  0  0  0  0  0  0
   -4.9579   -3.8403    0.0000 N   0  0  0  0  0  0  0  0  0  0  0  0
   -3.9542   -2.7256    0.0000 C   0  0  0  0  0  0  0  0  0  0  0  0
   -4.2660   -1.2584    0.0000 O   0  0  0  0  0  0  0  0  0  0  0  0
  1  2  1  0
  2  3  1  0
  3  4  2  0
  4  5  1  0
  5  6  1  0
  6  7  2  0
  6  8  1  0
  8  9  1  0
  9 10  1  0
 10 11  1  0
 11 12  1  0
 12 13  2  0
 13 14  1  0
 14 15  2  0
  5 16  2  0
 16 17  1  0
 16 18  1  0
 18 19  2  0
 19 20  1  0
 20 21  2  0
 21 22  1  0
 22 23  2  0
 23 24  1  0
 24 25  2  0
 25 26  1  0
 26 27  2  0
 27 28  1  0
 28 29  2  0
 29 30  1  0
 23 31  1  0
 31 32  2  0
 22 33  1  0
 33 34  2  0
 33 35  1  0
 35 36  1  0
 36 37  2  0
 32  2  1  0
 19  3  1  0
 32 20  1  0
 15 11  1  0
 36 21  1  0
 29 24  1  0
M  END
>  <Compound_ID>  (6) 
CHEMBL472689

>  <Active>  (6) 
1

>  <Smiles>  (6) 
Cn1c2cc(C(=O)NCCn3cccc3)c(O)cc2c2c3c(c(-c4ccccc4Cl)cc21)C(=O)NC3=O

>  <canonical_smi>  (6) 
Cn1c2cc(C(=O)NCCn3cccc3)c(O)cc2c2c3c(c(-c4ccccc4Cl)cc21)C(=O)NC3=O

>  <Set>  (6) 
G1 active

>  <Set_type>  (6) 
G1

>  <MW>  (6) 
512.95

>  <HBD>  (6) 
3

>  <HBA>  (6) 
4

>  <NRB>  (6) 
5

>  <NR>  (6) 
6

>  <NAR>  (6) 
5

>  <PSA>  (6) 
105.36

>  <Standard Type>  (6) 
nan

>  <Standard Relation>  (6) 
nan

>  <Standard Units>  (6) 
nan

>  <Standard Value>  (6) 
nan

>  <Assay ChEMBL ID>  (6) 
nan

>  <Assay Description>  (6) 
nan

>  <BAO Label>  (6) 
nan

$$$$

     RDKit          2D

 39 44  0  0  0  0  0  0  0  0999 V2000
   -4.8180   -6.5097    0.0000 O   0  0  0  0  0  0  0  0  0  0  0  0
   -4.2079   -5.1394    0.0000 C   0  0  0  0  0  0  0  0  0  0  0  0
   -4.9579   -3.8403    0.0000 N   0  0  0  0  0  0  0  0  0  0  0  0
   -3.9542   -2.7256    0.0000 C   0  0  0  0  0  0  0  0  0  0  0  0
   -4.2660   -1.2584    0.0000 O   0  0  0  0  0  0  0  0  0  0  0  0
   -2.5838   -3.3357    0.0000 C   0  0  0  0  0  0  0  0  0  0  0  0
   -2.7406   -4.8275    0.0000 C   0  0  0  0  0  0  0  0  0  0  0  0
   -1.5271   -5.7092    0.0000 C   0  0  0  0  0  0  0  0  0  0  0  0
   -1.6839   -7.2010    0.0000 C   0  0  0  0  0  0  0  0  0  0  0  0
   -3.0542   -7.8111    0.0000 C   0  0  0  0  0  0  0  0  0  0  0  0
   -3.2110   -9.3029    0.0000 C   0  0  0  0  0  0  0  0  0  0  0  0
   -1.9975  -10.1845    0.0000 C   0  0  0  0  0  0  0  0  0  0  0  0
   -0.6272   -9.5744    0.0000 C   0  0  0  0  0  0  0  0  0  0  0  0
   -0.4704   -8.0826    0.0000 C   0  0  0  0  0  0  0  0  0  0  0  0
    0.8999   -7.4725    0.0000 Cl  0  0  0  0  0  0  0  0  0  0  0  0
   -0.1568   -5.0991    0.0000 C   0  0  0  0  0  0  0  0  0  0  0  0
   -0.0000   -3.6073    0.0000 C   0  0  0  0  0  0  0  0  0  0  0  0
   -1.2135   -2.7256    0.0000 C   0  0  0  0  0  0  0  0  0  0  0  0
   -0.7500   -1.2990    0.0000 C   0  0  0  0  0  0  0  0  0  0  0  0
    0.7500   -1.2990    0.0000 C   0  0  0  0  0  0  0  0  0  0  0  0
    1.2135   -2.7256    0.0000 N   0  0  0  0  0  0  0  0  0  0  0  0
    2.6401   -3.1891    0.0000 C   0  0  0  0  0  0  0  0  0  0  0  0
    2.9520   -4.6564    0.0000 C   0  0  0  0  0  0  0  0  0  0  0  0
    4.3786   -5.1199    0.0000 O   0  0  0  0  0  0  0  0  0  0  0  0
    1.5000    0.0000    0.0000 C   0  0  0  0  0  0  0  0  0  0  0  0
    0.7500    1.2990    0.0000 C   0  0  0  0  0  0  0  0  0  0  0  0
    1.5000    2.5981    0.0000 O   0  0  0  0  0  0  0  0  0  0  0  0
    3.0000    2.5981    0.0000 C   0  0  0  0  0  0  0  0  0  0  0  0
    3.7500    3.8971    0.0000 C   0  0  0  0  0  0  0  0  0  0  0  0
    5.2500    3.8971    0.0000 C   0  0  0  0  0  0  0  0  0  0  0  0
    6.0000    5.1962    0.0000 N   0  0  0  0  0  0  0  0  0  0  0  0
    5.3899    6.5665    0.0000 C   0  0  0  0  0  0  0  0  0  0  0  0
    6.5046    7.5702    0.0000 C   0  0  0  0  0  0  0  0  0  0  0  0
    7.8037    6.8202    0.0000 C   0  0  0  0  0  0  0  0  0  0  0  0
    7.4918    5.3529    0.0000 C   0  0  0  0  0  0  0  0  0  0  0  0
   -0.7500    1.2990    0.0000 C   0  0  0  0  0  0  0  0  0  0  0  0
   -2.1595    1.8121    0.0000 O   0  0  0  0  0  0  0  0  0  0  0  0
   -0.4895    2.7762    0.0000 O   0  0  0  0  0  0  0  0  0  0  0  0
   -1.5000    0.0000    0.0000 C   0  0  0  0  0  0  0  0  0  0  0  0
  1  2  2  0
  2  3  1  0
  3  4  1  0
  4  5  2  0
  4  6  1  0
  6  7  2  0
  7  8  1  0
  8  9  1  0
  9 10  2  0
 10 11  1  0
 11 12  2  0
 12 13  1  0
 13 14  2  0
 14 15  1  0
  8 16  2  0
 16 17  1  0
 17 18  2  0
 18 19  1  0
 19 20  1  0
 20 21  1  0
 21 22  1  0
 22 23  1  0
 23 24  1  0
 20 25  2  0
 25 26  1  0
 26 27  1  0
 27 28  1  0
 28 29  1  0
 29 30  1  0
 30 31  1  0
 31 32  1  0
 32 33  2  0
 33 34  1  0
 34 35  2  0
 26 36  1  0
 36 37  1  0
 36 38  1  0
 36 39  1  0
  7  2  1  0
 14  9  1  0
 21 17  1  0
 35 31  1  0
 18  6  1  0
 39 19  2  0
M  END
>  <Compound_ID>  (7) 
CHEMBL469822

>  <Active>  (7) 
1

>  <Smiles>  (7) 
O=C1NC(=O)c2c1c(-c1ccccc1Cl)cc1c2c2c(n1CCO)=CC(OCCCn1cccc1)C(O)(O)C=2

>  <canonical_smi>  (7) 
O=C1NC(=O)c2c1c(-c1ccccc1Cl)cc1c2c2c(n1CCO)=CC(OCCCn1cccc1)C(O)(O)C=2

>  <Set>  (7) 
G1 active

>  <Set_type>  (7) 
G1

>  <MW>  (7) 
548.0

>  <HBD>  (7) 
4

>  <HBA>  (7) 
6

>  <NRB>  (7) 
8

>  <NR>  (7) 
6

>  <NAR>  (7) 
4

>  <PSA>  (7) 
125.95

>  <Standard Type>  (7) 
nan

>  <Standard Relation>  (7) 
nan

>  <Standard Units>  (7) 
nan

>  <Standard Value>  (7) 
nan

>  <Assay ChEMBL ID>  (7) 
nan

>  <Assay Description>  (7) 
nan

>  <BAO Label>  (7) 
nan

$$$$

     RDKit          2D

 39 44  0  0  0  0  0  0  0  0999 V2000
    4.8180   -6.5097    0.0000 O   0  0  0  0  0  0  0  0  0  0  0  0
    4.2079   -5.1394    0.0000 C   0  0  0  0  0  0  0  0  0  0  0  0
    4.9579   -3.8403    0.0000 N   0  0  0  0  0  0  0  0  0  0  0  0
    3.9542   -2.7256    0.0000 C   0  0  0  0  0  0  0  0  0  0  0  0
    4.2660   -1.2584    0.0000 O   0  0  0  0  0  0  0  0  0  0  0  0
    2.5838   -3.3357    0.0000 C   0  0  0  0  0  0  0  0  0  0  0  0
    2.7406   -4.8275    0.0000 C   0  0  0  0  0  0  0  0  0  0  0  0
    1.5271   -5.7092    0.0000 C   0  0  0  0  0  0  0  0  0  0  0  0
    1.6839   -7.2010    0.0000 C   0  0  0  0  0  0  0  0  0  0  0  0
    3.0542   -7.8111    0.0000 C   0  0  0  0  0  0  0  0  0  0  0  0
    3.2110   -9.3029    0.0000 C   0  0  0  0  0  0  0  0  0  0  0  0
    1.9975  -10.1845    0.0000 C   0  0  0  0  0  0  0  0  0  0  0  0
    0.6272   -9.5744    0.0000 C   0  0  0  0  0  0  0  0  0  0  0  0
    0.4704   -8.0826    0.0000 C   0  0  0  0  0  0  0  0  0  0  0  0
   -0.8999   -7.4725    0.0000 Cl  0  0  0  0  0  0  0  0  0  0  0  0
    0.1568   -5.0991    0.0000 C   0  0  0  0  0  0  0  0  0  0  0  0
    0.0000   -3.6073    0.0000 C   0  0  0  0  0  0  0  0  0  0  0  0
    1.2135   -2.7256    0.0000 C   0  0  0  0  0  0  0  0  0  0  0  0
    0.7500   -1.2990    0.0000 C   0  0  0  0  0  0  0  0  0  0  0  0
    1.5000    0.0000    0.0000 C   0  0  0  0  0  0  0  0  0  0  0  0
    0.7500    1.2990    0.0000 C   0  0  0  0  0  0  0  0  0  0  0  0
    1.5000    2.5981    0.0000 O   0  0  0  0  0  0  0  0  0  0  0  0
   -0.7500    1.2990    0.0000 C   0  0  0  0  0  0  0  0  0  0  0  0
   -1.5000    2.5981    0.0000 C   0  0  0  0  0  0  0  0  0  0  0  0
   -0.7500    3.8971    0.0000 C   0  0  0  0  0  0  0  0  0  0  0  0
   -1.5000    5.1962    0.0000 C   0  0  0  0  0  0  0  0  0  0  0  0
   -0.7500    6.4952    0.0000 C   0  0  0  0  0  0  0  0  0  0  0  0
   -1.5000    7.7942    0.0000 N   0  0  0  0  0  0  0  0  0  0  0  0
   -0.7500    9.0933    0.0000 C   0  0  0  0  0  0  0  0  0  0  0  0
   -1.5000   10.3923    0.0000 C   0  0  0  0  0  0  0  0  0  0  0  0
   -3.0000   10.3923    0.0000 O   0  0  0  0  0  0  0  0  0  0  0  0
   -3.7500    9.0933    0.0000 C   0  0  0  0  0  0  0  0  0  0  0  0
   -3.0000    7.7942    0.0000 C   0  0  0  0  0  0  0  0  0  0  0  0
   -1.5000    0.0000    0.0000 C   0  0  0  0  0  0  0  0  0  0  0  0
   -0.7500   -1.2990    0.0000 C   0  0  0  0  0  0  0  0  0  0  0  0
   -1.2135   -2.7256    0.0000 N   0  0  0  0  0  0  0  0  0  0  0  0
   -2.6401   -3.1891    0.0000 C   0  0  0  0  0  0  0  0  0  0  0  0
   -3.7548   -2.1855    0.0000 C   0  0  0  0  0  0  0  0  0  0  0  0
   -5.1814   -2.6490    0.0000 O   0  0  0  0  0  0  0  0  0  0  0  0
  1  2  2  0
  2  3  1  0
  3  4  1  0
  4  5  2  0
  4  6  1  0
  6  7  2  0
  7  8  1  0
  8  9  1  0
  9 10  2  0
 10 11  1  0
 11 12  2  0
 12 13  1  0
 13 14  2  0
 14 15  1  0
  8 16  2  0
 16 17  1  0
 17 18  2  0
 18 19  1  0
 19 20  2  0
 20 21  1  0
 21 22  1  0
 21 23  2  0
 23 24  1  0
 24 25  1  0
 25 26  1  0
 26 27  1  0
 27 28  1  0
 28 29  1  0
 29 30  1  0
 30 31  1  0
 31 32  1  0
 32 33  1  0
 23 34  1  0
 34 35  2  0
 35 36  1  0
 36 37  1  0
 37 38  1  0
 38 39  1  0
  7  2  1  0
 14  9  1  0
 36 17  1  0
 18  6  1  0
 35 19  1  0
 33 28  1  0
M  END
>  <Compound_ID>  (8) 
CHEMBL258067

>  <Active>  (8) 
1

>  <Smiles>  (8) 
O=C1NC(=O)c2c1c(-c1ccccc1Cl)cc1c2c2cc(O)c(CCCCN3CCOCC3)cc2n1CCO

>  <canonical_smi>  (8) 
O=C1NC(=O)c2c1c(-c1ccccc1Cl)cc1c2c2cc(O)c(CCCCN3CCOCC3)cc2n1CCO

>  <Set>  (8) 
G1 active

>  <Set_type>  (8) 
G1

>  <MW>  (8) 
548.04

>  <HBD>  (8) 
3

>  <HBA>  (8) 
6

>  <NRB>  (8) 
8

>  <NR>  (8) 
6

>  <NAR>  (8) 
4

>  <PSA>  (8) 
104.03

>  <Standard Type>  (8) 
nan

>  <Standard Relation>  (8) 
nan

>  <Standard Units>  (8) 
nan

>  <Standard Value>  (8) 
nan

>  <Assay ChEMBL ID>  (8) 
nan

>  <Assay Description>  (8) 
nan

>  <BAO Label>  (8) 
nan

$$$$

     RDKit          2D

 36 41  0  0  0  0  0  0  0  0999 V2000
    4.8180   -6.5097    0.0000 O   0  0  0  0  0  0  0  0  0  0  0  0
    4.2079   -5.1394    0.0000 C   0  0  0  0  0  0  0  0  0  0  0  0
    4.9579   -3.8403    0.0000 N   0  0  0  0  0  0  0  0  0  0  0  0
    3.9542   -2.7256    0.0000 C   0  0  0  0  0  0  0  0  0  0  0  0
    4.2660   -1.2584    0.0000 O   0  0  0  0  0  0  0  0  0  0  0  0
    2.5838   -3.3357    0.0000 C   0  0  0  0  0  0  0  0  0  0  0  0
    2.7406   -4.8275    0.0000 C   0  0  0  0  0  0  0  0  0  0  0  0
    1.5271   -5.7092    0.0000 C   0  0  0  0  0  0  0  0  0  0  0  0
    1.6839   -7.2010    0.0000 C   0  0  0  0  0  0  0  0  0  0  0  0
    3.0542   -7.8111    0.0000 C   0  0  0  0  0  0  0  0  0  0  0  0
    3.2110   -9.3029    0.0000 C   0  0  0  0  0  0  0  0  0  0  0  0
    1.9975  -10.1845    0.0000 C   0  0  0  0  0  0  0  0  0  0  0  0
    0.6272   -9.5744    0.0000 C   0  0  0  0  0  0  0  0  0  0  0  0
    0.4704   -8.0826    0.0000 C   0  0  0  0  0  0  0  0  0  0  0  0
   -0.8999   -7.4725    0.0000 Cl  0  0  0  0  0  0  0  0  0  0  0  0
    0.1568   -5.0991    0.0000 C   0  0  0  0  0  0  0  0  0  0  0  0
   -0.0000   -3.6073    0.0000 C   0  0  0  0  0  0  0  0  0  0  0  0
    1.2135   -2.7256    0.0000 C   0  0  0  0  0  0  0  0  0  0  0  0
    0.7500   -1.2990    0.0000 C   0  0  0  0  0  0  0  0  0  0  0  0
    1.5000    0.0000    0.0000 C   0  0  0  0  0  0  0  0  0  0  0  0
    0.7500    1.2990    0.0000 C   0  0  0  0  0  0  0  0  0  0  0  0
    1.5000    2.5981    0.0000 O   0  0  0  0  0  0  0  0  0  0  0  0
   -0.7500    1.2990    0.0000 C   0  0  0  0  0  0  0  0  0  0  0  0
   -1.5000    0.0000    0.0000 C   0  0  0  0  0  0  0  0  0  0  0  0
   -0.7500   -1.2990    0.0000 C   0  0  0  0  0  0  0  0  0  0  0  0
   -1.2135   -2.7256    0.0000 N   0  0  0  0  0  0  0  0  0  0  0  0
   -2.6401   -3.1891    0.0000 C   0  0  0  0  0  0  0  0  0  0  0  0
   -3.7548   -2.1855    0.0000 C   0  0  0  0  0  0  0  0  0  0  0  0
   -5.1814   -2.6490    0.0000 S   0  0  0  0  0  0  0  0  0  0  0  0
   -5.6449   -1.2224    0.0000 O   0  0  0  0  0  0  0  0  0  0  0  0
   -4.7179   -4.0756    0.0000 O   0  0  0  0  0  0  0  0  0  0  0  0
   -6.6080   -3.1125    0.0000 C   0  0  0  0  0  0  0  0  0  0  0  0
   -7.0715   -4.5391    0.0000 N   0  0  0  0  0  0  0  0  0  0  0  0
   -8.5715   -4.5391    0.0000 N   0  0  0  0  0  0  0  0  0  0  0  0
   -9.0350   -3.1125    0.0000 C   0  0  0  0  0  0  0  0  0  0  0  0
   -7.8215   -2.2308    0.0000 N   0  0  0  0  0  0  0  0  0  0  0  0
  1  2  2  0
  2  3  1  0
  3  4  1  0
  4  5  2  0
  4  6  1  0
  6  7  2  0
  7  8  1  0
  8  9  1  0
  9 10  2  0
 10 11  1  0
 11 12  2  0
 12 13  1  0
 13 14  2  0
 14 15  1  0
  8 16  2  0
 16 17  1  0
 17 18  2  0
 18 19  1  0
 19 20  2  0
 20 21  1  0
 21 22  1  0
 21 23  2  0
 23 24  1  0
 24 25  2  0
 25 26  1  0
 26 27  1  0
 27 28  1  0
 28 29  1  0
 29 30  2  0
 29 31  2  0
 29 32  1  0
 32 33  2  0
 33 34  1  0
 34 35  2  0
 35 36  1  0
  7  2  1  0
 14  9  1  0
 26 17  1  0
 36 32  1  0
 18  6  1  0
 25 19  1  0
M  END
>  <Compound_ID>  (9) 
CHEMBL472209

>  <Active>  (9) 
1

>  <Smiles>  (9) 
O=C1NC(=O)c2c1c(-c1ccccc1Cl)cc1c2c2cc(O)ccc2n1CCS(=O)(=O)c1nnc[nH]1

>  <canonical_smi>  (9) 
O=C1NC(=O)c2c1c(-c1ccccc1Cl)cc1c2c2cc(O)ccc2n1CCS(=O)(=O)c1nnc[nH]1

>  <Set>  (9) 
G1 active

>  <Set_type>  (9) 
G1

>  <MW>  (9) 
521.94

>  <HBD>  (9) 
3

>  <HBA>  (9) 
7

>  <NRB>  (9) 
5

>  <NR>  (9) 
6

>  <NAR>  (9) 
5

>  <PSA>  (9) 
147.04

>  <Standard Type>  (9) 
nan

>  <Standard Relation>  (9) 
nan

>  <Standard Units>  (9) 
nan

>  <Standard Value>  (9) 
nan

>  <Assay ChEMBL ID>  (9) 
nan

>  <Assay Description>  (9) 
nan

>  <BAO Label>  (9) 
nan

$$$$

     RDKit          2D

 36 41  0  0  0  0  0  0  0  0999 V2000
    2.6401   -3.1891    0.0000 C   0  0  0  0  0  0  0  0  0  0  0  0
    1.2135   -2.7256    0.0000 N   0  0  0  0  0  0  0  0  0  0  0  0
    0.7500   -1.2990    0.0000 C   0  0  0  0  0  0  0  0  0  0  0  0
    1.5000    0.0000    0.0000 C   0  0  0  0  0  0  0  0  0  0  0  0
    0.7500    1.2990    0.0000 C   0  0  0  0  0  0  0  0  0  0  0  0
    1.5000    2.5981    0.0000 S   0  0  0  0  0  0  0  0  0  0  0  0
    3.0000    2.5981    0.0000 C   0  0  0  0  0  0  0  0  0  0  0  0
    3.7500    3.8971    0.0000 C   0  0  0  0  0  0  0  0  0  0  0  0
    5.2500    3.8971    0.0000 C   0  0  0  0  0  0  0  0  0  0  0  0
    6.0000    5.1962    0.0000 N   0  0  0  0  0  0  0  0  0  0  0  0
    5.3899    6.5665    0.0000 C   0  0  0  0  0  0  0  0  0  0  0  0
    6.5046    7.5702    0.0000 C   0  0  0  0  0  0  0  0  0  0  0  0
    7.8037    6.8202    0.0000 C   0  0  0  0  0  0  0  0  0  0  0  0
    7.4918    5.3529    0.0000 C   0  0  0  0  0  0  0  0  0  0  0  0
   -0.7500    1.2990    0.0000 C   0  0  0  0  0  0  0  0  0  0  0  0
   -1.5000    2.5981    0.0000 O   0  0  0  0  0  0  0  0  0  0  0  0
   -1.5000    0.0000    0.0000 C   0  0  0  0  0  0  0  0  0  0  0  0
   -0.7500   -1.2990    0.0000 C   0  0  0  0  0  0  0  0  0  0  0  0
   -1.2135   -2.7256    0.0000 C   0  0  0  0  0  0  0  0  0  0  0  0
   -2.5838   -3.3357    0.0000 C   0  0  0  0  0  0  0  0  0  0  0  0
   -2.7406   -4.8275    0.0000 C   0  0  0  0  0  0  0  0  0  0  0  0
   -1.5271   -5.7092    0.0000 C   0  0  0  0  0  0  0  0  0  0  0  0
   -1.6839   -7.2010    0.0000 C   0  0  0  0  0  0  0  0  0  0  0  0
   -3.0542   -7.8111    0.0000 C   0  0  0  0  0  0  0  0  0  0  0  0
   -3.2110   -9.3029    0.0000 C   0  0  0  0  0  0  0  0  0  0  0  0
   -1.9975  -10.1845    0.0000 C   0  0  0  0  0  0  0  0  0  0  0  0
   -0.6272   -9.5744    0.0000 C   0  0  0  0  0  0  0  0  0  0  0  0
   -0.4704   -8.0826    0.0000 C   0  0  0  0  0  0  0  0  0  0  0  0
    0.8999   -7.4725    0.0000 Cl  0  0  0  0  0  0  0  0  0  0  0  0
   -0.1568   -5.0991    0.0000 C   0  0  0  0  0  0  0  0  0  0  0  0
   -0.0000   -3.6073    0.0000 C   0  0  0  0  0  0  0  0  0  0  0  0
   -4.2079   -5.1394    0.0000 C   0  0  0  0  0  0  0  0  0  0  0  0
   -4.8180   -6.5097    0.0000 O   0  0  0  0  0  0  0  0  0  0  0  0
   -4.9579   -3.8403    0.0000 N   0  0  0  0  0  0  0  0  0  0  0  0
   -3.9542   -2.7256    0.0000 C   0  0  0  0  0  0  0  0  0  0  0  0
   -4.2660   -1.2584    0.0000 O   0  0  0  0  0  0  0  0  0  0  0  0
  1  2  1  0
  2  3  1  0
  3  4  2  0
  4  5  1  0
  5  6  1  0
  6  7  1  0
  7  8  1  0
  8  9  1  0
  9 10  1  0
 10 11  1  0
 11 12  2  0
 12 13  1  0
 13 14  2  0
  5 15  2  0
 15 16  1  0
 15 17  1  0
 17 18  2  0
 18 19  1  0
 19 20  2  0
 20 21  1  0
 21 22  2  0
 22 23  1  0
 23 24  2  0
 24 25  1  0
 25 26  2  0
 26 27  1  0
 27 28  2  0
 28 29  1  0
 22 30  1  0
 30 31  2  0
 21 32  1  0
 32 33  2  0
 32 34  1  0
 34 35  1  0
 35 36  2  0
 31  2  1  0
 18  3  1  0
 31 19  1  0
 14 10  1  0
 35 20  1  0
 28 23  1  0
M  END
>  <Compound_ID>  (10) 
CHEMBL474714

>  <Active>  (10) 
1

>  <Smiles>  (10) 
Cn1c2cc(SCCCn3cccc3)c(O)cc2c2c3c(c(-c4ccccc4Cl)cc21)C(=O)NC3=O

>  <canonical_smi>  (10) 
Cn1c2cc(SCCCn3cccc3)c(O)cc2c2c3c(c(-c4ccccc4Cl)cc21)C(=O)NC3=O

>  <Set>  (10) 
G1 active

>  <Set_type>  (10) 
G1

>  <MW>  (10) 
516.02

>  <HBD>  (10) 
2

>  <HBA>  (10) 
4

>  <NRB>  (10) 
6

>  <NR>  (10) 
6

>  <NAR>  (10) 
5

>  <PSA>  (10) 
76.26

>  <Standard Type>  (10) 
nan

>  <Standard Relation>  (10) 
nan

>  <Standard Units>  (10) 
nan

>  <Standard Value>  (10) 
nan

>  <Assay ChEMBL ID>  (10) 
nan

>  <Assay Description>  (10) 
nan

>  <BAO Label>  (10) 
nan

$$$$

     RDKit          2D

 33 38  0  0  0  0  0  0  0  0999 V2000
    4.8180   -6.5097    0.0000 O   0  0  0  0  0  0  0  0  0  0  0  0
    4.2079   -5.1394    0.0000 C   0  0  0  0  0  0  0  0  0  0  0  0
    4.9579   -3.8403    0.0000 N   0  0  0  0  0  0  0  0  0  0  0  0
    3.9542   -2.7256    0.0000 C   0  0  0  0  0  0  0  0  0  0  0  0
    4.2660   -1.2584    0.0000 O   0  0  0  0  0  0  0  0  0  0  0  0
    2.5838   -3.3357    0.0000 C   0  0  0  0  0  0  0  0  0  0  0  0
    2.7406   -4.8275    0.0000 C   0  0  0  0  0  0  0  0  0  0  0  0
    1.5271   -5.7092    0.0000 C   0  0  0  0  0  0  0  0  0  0  0  0
    1.6839   -7.2010    0.0000 C   0  0  0  0  0  0  0  0  0  0  0  0
    3.0542   -7.8111    0.0000 C   0  0  0  0  0  0  0  0  0  0  0  0
    3.2110   -9.3029    0.0000 C   0  0  0  0  0  0  0  0  0  0  0  0
    1.9975  -10.1845    0.0000 C   0  0  0  0  0  0  0  0  0  0  0  0
    0.6272   -9.5744    0.0000 C   0  0  0  0  0  0  0  0  0  0  0  0
    0.4704   -8.0826    0.0000 C   0  0  0  0  0  0  0  0  0  0  0  0
   -0.8999   -7.4725    0.0000 Cl  0  0  0  0  0  0  0  0  0  0  0  0
    0.1568   -5.0991    0.0000 C   0  0  0  0  0  0  0  0  0  0  0  0
   -0.0000   -3.6073    0.0000 C   0  0  0  0  0  0  0  0  0  0  0  0
    1.2135   -2.7256    0.0000 C   0  0  0  0  0  0  0  0  0  0  0  0
    0.7500   -1.2990    0.0000 C   0  0  0  0  0  0  0  0  0  0  0  0
    1.5000    0.0000    0.0000 C   0  0  0  0  0  0  0  0  0  0  0  0
    0.7500    1.2990    0.0000 C   0  0  0  0  0  0  0  0  0  0  0  0
    1.5000    2.5981    0.0000 O   0  0  0  0  0  0  0  0  0  0  0  0
   -0.7500    1.2990    0.0000 C   0  0  0  0  0  0  0  0  0  0  0  0
   -1.5000    0.0000    0.0000 C   0  0  0  0  0  0  0  0  0  0  0  0
   -0.7500   -1.2990    0.0000 C   0  0  0  0  0  0  0  0  0  0  0  0
   -1.2135   -2.7256    0.0000 N   0  0  0  0  0  0  0  0  0  0  0  0
   -2.6401   -3.1891    0.0000 C   0  0  0  0  0  0  0  0  0  0  0  0
   -3.7548   -2.1855    0.0000 C   0  0  0  0  0  0  0  0  0  0  0  0
   -5.1814   -2.6490    0.0000 C   0  0  0  0  0  0  0  0  0  0  0  0
   -5.6449   -4.0756    0.0000 N   0  0  0  0  0  0  0  0  0  0  0  0
   -7.1449   -4.0756    0.0000 N   0  0  0  0  0  0  0  0  0  0  0  0
   -7.6085   -2.6490    0.0000 N   0  0  0  0  0  0  0  0  0  0  0  0
   -6.3949   -1.7673    0.0000 N   0  0  0  0  0  0  0  0  0  0  0  0
  1  2  2  0
  2  3  1  0
  3  4  1  0
  4  5  2  0
  4  6  1  0
  6  7  2  0
  7  8  1  0
  8  9  1  0
  9 10  2  0
 10 11  1  0
 11 12  2  0
 12 13  1  0
 13 14  2  0
 14 15  1  0
  8 16  2  0
 16 17  1  0
 17 18  2  0
 18 19  1  0
 19 20  2  0
 20 21  1  0
 21 22  1  0
 21 23  2  0
 23 24  1  0
 24 25  2  0
 25 26  1  0
 26 27  1  0
 27 28  1  0
 28 29  1  0
 29 30  2  0
 30 31  1  0
 31 32  2  0
 32 33  1  0
  7  2  1  0
 14  9  1  0
 26 17  1  0
 33 29  1  0
 18  6  1  0
 25 19  1  0
M  END
>  <Compound_ID>  (11) 
CHEMBL512342

>  <Active>  (11) 
1

>  <Smiles>  (11) 
O=C1NC(=O)c2c1c(-c1ccccc1Cl)cc1c2c2cc(O)ccc2n1CCc1nnn[nH]1

>  <canonical_smi>  (11) 
O=C1NC(=O)c2c1c(-c1ccccc1Cl)cc1c2c2cc(O)ccc2n1CCc1nnn[nH]1

>  <Set>  (11) 
G1 active

>  <Set_type>  (11) 
G1

>  <MW>  (11) 
458.87

>  <HBD>  (11) 
3

>  <HBA>  (11) 
6

>  <NRB>  (11) 
4

>  <NR>  (11) 
6

>  <NAR>  (11) 
5

>  <PSA>  (11) 
125.79

>  <Standard Type>  (11) 
nan

>  <Standard Relation>  (11) 
nan

>  <Standard Units>  (11) 
nan

>  <Standard Value>  (11) 
nan

>  <Assay ChEMBL ID>  (11) 
nan

>  <Assay Description>  (11) 
nan

>  <BAO Label>  (11) 
nan

$$$$

     RDKit          2D

 38 43  0  0  0  0  0  0  0  0999 V2000
    4.8180   -6.5097    0.0000 O   0  0  0  0  0  0  0  0  0  0  0  0
    4.2079   -5.1394    0.0000 C   0  0  0  0  0  0  0  0  0  0  0  0
    4.9579   -3.8403    0.0000 N   0  0  0  0  0  0  0  0  0  0  0  0
    3.9542   -2.7256    0.0000 C   0  0  0  0  0  0  0  0  0  0  0  0
    4.2660   -1.2584    0.0000 O   0  0  0  0  0  0  0  0  0  0  0  0
    2.5838   -3.3357    0.0000 C   0  0  0  0  0  0  0  0  0  0  0  0
    2.7406   -4.8275    0.0000 C   0  0  0  0  0  0  0  0  0  0  0  0
    1.5271   -5.7092    0.0000 C   0  0  0  0  0  0  0  0  0  0  0  0
    1.6839   -7.2010    0.0000 C   0  0  0  0  0  0  0  0  0  0  0  0
    3.0542   -7.8111    0.0000 C   0  0  0  0  0  0  0  0  0  0  0  0
    3.2110   -9.3029    0.0000 C   0  0  0  0  0  0  0  0  0  0  0  0
    1.9975  -10.1845    0.0000 C   0  0  0  0  0  0  0  0  0  0  0  0
    0.6272   -9.5744    0.0000 C   0  0  0  0  0  0  0  0  0  0  0  0
    0.4704   -8.0826    0.0000 C   0  0  0  0  0  0  0  0  0  0  0  0
   -0.8999   -7.4725    0.0000 Cl  0  0  0  0  0  0  0  0  0  0  0  0
    0.1568   -5.0991    0.0000 C   0  0  0  0  0  0  0  0  0  0  0  0
    0.0000   -3.6073    0.0000 C   0  0  0  0  0  0  0  0  0  0  0  0
    1.2135   -2.7256    0.0000 C   0  0  0  0  0  0  0  0  0  0  0  0
    0.7500   -1.2990    0.0000 C   0  0  0  0  0  0  0  0  0  0  0  0
    1.5000    0.0000    0.0000 C   0  0  0  0  0  0  0  0  0  0  0  0
    0.7500    1.2990    0.0000 C   0  0  0  0  0  0  0  0  0  0  0  0
    1.5000    2.5981    0.0000 O   0  0  0  0  0  0  0  0  0  0  0  0
   -0.7500    1.2990    0.0000 C   0  0  0  0  0  0  0  0  0  0  0  0
   -1.5000    2.5981    0.0000 O   0  0  0  0  0  0  0  0  0  0  0  0
   -3.0000    2.5981    0.0000 C   0  0  0  0  0  0  0  0  0  0  0  0
   -3.7500    3.8971    0.0000 C   0  0  0  0  0  0  0  0  0  0  0  0
   -5.2500    3.8971    0.0000 C   0  0  0  0  0  0  0  0  0  0  0  0
   -6.0000    5.1962    0.0000 N   0  0  0  0  0  0  0  0  0  0  0  0
   -7.4918    5.3529    0.0000 C   0  0  0  0  0  0  0  0  0  0  0  0
   -7.8037    6.8202    0.0000 C   0  0  0  0  0  0  0  0  0  0  0  0
   -6.5046    7.5702    0.0000 C   0  0  0  0  0  0  0  0  0  0  0  0
   -5.3899    6.5665    0.0000 C   0  0  0  0  0  0  0  0  0  0  0  0
   -1.5000    0.0000    0.0000 C   0  0  0  0  0  0  0  0  0  0  0  0
   -0.7500   -1.2990    0.0000 C   0  0  0  0  0  0  0  0  0  0  0  0
   -1.2135   -2.7256    0.0000 N   0  0  0  0  0  0  0  0  0  0  0  0
   -2.6401   -3.1891    0.0000 C   0  0  0  0  0  0  0  0  0  0  0  0
   -3.7548   -2.1855    0.0000 C   0  0  0  0  0  0  0  0  0  0  0  0
   -5.1814   -2.6490    0.0000 O   0  0  0  0  0  0  0  0  0  0  0  0
  1  2  2  0
  2  3  1  0
  3  4  1  0
  4  5  2  0
  4  6  1  0
  6  7  2  0
  7  8  1  0
  8  9  1  0
  9 10  2  0
 10 11  1  0
 11 12  2  0
 12 13  1  0
 13 14  2  0
 14 15  1  0
  8 16  2  0
 16 17  1  0
 17 18  2  0
 18 19  1  0
 19 20  2  0
 20 21  1  0
 21 22  1  0
 21 23  2  0
 23 24  1  0
 24 25  1  0
 25 26  1  0
 26 27  1  0
 27 28  1  0
 28 29  1  0
 29 30  1  0
 30 31  1  0
 31 32  1  0
 23 33  1  0
 33 34  2  0
 34 35  1  0
 35 36  1  0
 36 37  1  0
 37 38  1  0
  7  2  1  0
 14  9  1  0
 35 17  1  0
 18  6  1  0
 34 19  1  0
 32 28  1  0
M  END
>  <Compound_ID>  (12) 
CHEMBL270021

>  <Active>  (12) 
1

>  <Smiles>  (12) 
O=C1NC(=O)c2c1c(-c1ccccc1Cl)cc1c2c2cc(O)c(OCCCN3CCCC3)cc2n1CCO

>  <canonical_smi>  (12) 
O=C1NC(=O)c2c1c(-c1ccccc1Cl)cc1c2c2cc(O)c(OCCCN3CCCC3)cc2n1CCO

>  <Set>  (12) 
G1 active

>  <Set_type>  (12) 
G1

>  <MW>  (12) 
534.01

>  <HBD>  (12) 
3

>  <HBA>  (12) 
6

>  <NRB>  (12) 
8

>  <NR>  (12) 
6

>  <NAR>  (12) 
4

>  <PSA>  (12) 
104.03

>  <Standard Type>  (12) 
nan

>  <Standard Relation>  (12) 
nan

>  <Standard Units>  (12) 
nan

>  <Standard Value>  (12) 
nan

>  <Assay ChEMBL ID>  (12) 
nan

>  <Assay Description>  (12) 
nan

>  <BAO Label>  (12) 
nan

$$$$

     RDKit          2D

 34 39  0  0  0  0  0  0  0  0999 V2000
    4.8180   -6.5097    0.0000 O   0  0  0  0  0  0  0  0  0  0  0  0
    4.2079   -5.1394    0.0000 C   0  0  0  0  0  0  0  0  0  0  0  0
    4.9579   -3.8403    0.0000 N   0  0  0  0  0  0  0  0  0  0  0  0
    3.9542   -2.7256    0.0000 C   0  0  0  0  0  0  0  0  0  0  0  0
    4.2660   -1.2584    0.0000 O   0  0  0  0  0  0  0  0  0  0  0  0
    2.5838   -3.3357    0.0000 C   0  0  0  0  0  0  0  0  0  0  0  0
    2.7406   -4.8275    0.0000 C   0  0  0  0  0  0  0  0  0  0  0  0
    1.5271   -5.7092    0.0000 C   0  0  0  0  0  0  0  0  0  0  0  0
    1.6839   -7.2010    0.0000 C   0  0  0  0  0  0  0  0  0  0  0  0
    3.0542   -7.8111    0.0000 C   0  0  0  0  0  0  0  0  0  0  0  0
    3.2110   -9.3029    0.0000 C   0  0  0  0  0  0  0  0  0  0  0  0
    1.9975  -10.1845    0.0000 C   0  0  0  0  0  0  0  0  0  0  0  0
    0.6272   -9.5744    0.0000 C   0  0  0  0  0  0  0  0  0  0  0  0
    0.4704   -8.0826    0.0000 C   0  0  0  0  0  0  0  0  0  0  0  0
   -0.8999   -7.4725    0.0000 Cl  0  0  0  0  0  0  0  0  0  0  0  0
    0.1568   -5.0991    0.0000 C   0  0  0  0  0  0  0  0  0  0  0  0
   -0.0000   -3.6073    0.0000 C   0  0  0  0  0  0  0  0  0  0  0  0
    1.2135   -2.7256    0.0000 C   0  0  0  0  0  0  0  0  0  0  0  0
    0.7500   -1.2990    0.0000 C   0  0  0  0  0  0  0  0  0  0  0  0
    1.5000    0.0000    0.0000 C   0  0  0  0  0  0  0  0  0  0  0  0
    0.7500    1.2990    0.0000 C   0  0  0  0  0  0  0  0  0  0  0  0
    1.5000    2.5981    0.0000 O   0  0  0  0  0  0  0  0  0  0  0  0
   -0.7500    1.2990    0.0000 C   0  0  0  0  0  0  0  0  0  0  0  0
   -1.5000    0.0000    0.0000 C   0  0  0  0  0  0  0  0  0  0  0  0
   -0.7500   -1.2990    0.0000 C   0  0  0  0  0  0  0  0  0  0  0  0
   -1.2135   -2.7256    0.0000 N   0  0  0  0  0  0  0  0  0  0  0  0
   -2.6401   -3.1891    0.0000 C   0  0  0  0  0  0  0  0  0  0  0  0
   -3.7548   -2.1855    0.0000 C   0  0  0  0  0  0  0  0  0  0  0  0
   -5.1814   -2.6490    0.0000 S   0  0  0  0  0  0  0  0  0  0  0  0
   -6.2961   -1.6453    0.0000 N   0  0  0  0  0  0  0  0  0  0  0  0
   -7.7634   -1.9571    0.0000 C   0  0  0  0  0  0  0  0  0  0  0  0
   -8.5134   -0.6581    0.0000 C   0  0  0  0  0  0  0  0  0  0  0  0
   -7.5097    0.4566    0.0000 N   0  0  0  0  0  0  0  0  0  0  0  0
   -6.1393   -0.1535    0.0000 N   0  0  0  0  0  0  0  0  0  0  0  0
  1  2  2  0
  2  3  1  0
  3  4  1  0
  4  5  2  0
  4  6  1  0
  6  7  2  0
  7  8  1  0
  8  9  1  0
  9 10  2  0
 10 11  1  0
 11 12  2  0
 12 13  1  0
 13 14  2  0
 14 15  1  0
  8 16  2  0
 16 17  1  0
 17 18  2  0
 18 19  1  0
 19 20  2  0
 20 21  1  0
 21 22  1  0
 21 23  2  0
 23 24  1  0
 24 25  2  0
 25 26  1  0
 26 27  1  0
 27 28  1  0
 28 29  1  0
 29 30  1  0
 30 31  1  0
 31 32  2  0
 32 33  1  0
 33 34  2  0
  7  2  1  0
 14  9  1  0
 26 17  1  0
 34 30  1  0
 18  6  1  0
 25 19  1  0
M  END
>  <Compound_ID>  (13) 
CHEMBL521200

>  <Active>  (13) 
1

>  <Smiles>  (13) 
O=C1NC(=O)c2c1c(-c1ccccc1Cl)cc1c2c2cc(O)ccc2n1CCSn1ccnn1

>  <canonical_smi>  (13) 
O=C1NC(=O)c2c1c(-c1ccccc1Cl)cc1c2c2cc(O)ccc2n1CCSn1ccnn1

>  <Set>  (13) 
G1 active

>  <Set_type>  (13) 
G1

>  <MW>  (13) 
489.94

>  <HBD>  (13) 
2

>  <HBA>  (13) 
6

>  <NRB>  (13) 
5

>  <NR>  (13) 
6

>  <NAR>  (13) 
5

>  <PSA>  (13) 
102.04

>  <Standard Type>  (13) 
nan

>  <Standard Relation>  (13) 
nan

>  <Standard Units>  (13) 
nan

>  <Standard Value>  (13) 
nan

>  <Assay ChEMBL ID>  (13) 
nan

>  <Assay Description>  (13) 
nan

>  <BAO Label>  (13) 
nan

$$$$

     RDKit          2D

 22 25  0  0  0  0  0  0  0  0999 V2000
    4.8180   -6.5097    0.0000 O   0  0  0  0  0  0  0  0  0  0  0  0
    4.2079   -5.1394    0.0000 C   0  0  0  0  0  0  0  0  0  0  0  0
    4.9579   -3.8403    0.0000 N   0  0  0  0  0  0  0  0  0  0  0  0
    3.9542   -2.7256    0.0000 C   0  0  0  0  0  0  0  0  0  0  0  0
    4.2660   -1.2584    0.0000 O   0  0  0  0  0  0  0  0  0  0  0  0
    2.5838   -3.3357    0.0000 C   0  0  0  0  0  0  0  0  0  0  0  0
    2.7406   -4.8275    0.0000 C   0  0  0  0  0  0  0  0  0  0  0  0
    1.5271   -5.7092    0.0000 C   0  0  0  0  0  0  0  0  0  0  0  0
    0.1568   -5.0991    0.0000 C   0  0  0  0  0  0  0  0  0  0  0  0
    0.0000   -3.6073    0.0000 C   0  0  0  0  0  0  0  0  0  0  0  0
    1.2135   -2.7256    0.0000 C   0  0  0  0  0  0  0  0  0  0  0  0
    0.7500   -1.2990    0.0000 C   0  0  0  0  0  0  0  0  0  0  0  0
    1.5000    0.0000    0.0000 C   0  0  0  0  0  0  0  0  0  0  0  0
    0.7500    1.2990    0.0000 C   0  0  0  0  0  0  0  0  0  0  0  0
    1.5000    2.5981    0.0000 O   0  0  0  0  0  0  0  0  0  0  0  0
   -0.7500    1.2990    0.0000 C   0  0  0  0  0  0  0  0  0  0  0  0
   -1.5000    0.0000    0.0000 C   0  0  0  0  0  0  0  0  0  0  0  0
   -0.7500   -1.2990    0.0000 C   0  0  0  0  0  0  0  0  0  0  0  0
   -1.2135   -2.7256    0.0000 N   0  0  0  0  0  0  0  0  0  0  0  0
   -2.6401   -3.1891    0.0000 C   0  0  0  0  0  0  0  0  0  0  0  0
   -3.7548   -2.1855    0.0000 C   0  0  0  0  0  0  0  0  0  0  0  0
   -5.1814   -2.6490    0.0000 O   0  0  0  0  0  0  0  0  0  0  0  0
  1  2  2  0
  2  3  1  0
  3  4  1  0
  4  5  2  0
  4  6  1  0
  6  7  2  0
  7  8  1  0
  8  9  2  0
  9 10  1  0
 10 11  2  0
 11 12  1  0
 12 13  2  0
 13 14  1  0
 14 15  1  0
 14 16  2  0
 16 17  1  0
 17 18  2  0
 18 19  1  0
 19 20  1  0
 20 21  1  0
 21 22  1  0
  7  2  1  0
 19 10  1  0
 11  6  1  0
 18 12  1  0
M  END
>  <Compound_ID>  (14) 
CHEMBL475325

>  <Active>  (14) 
1

>  <Smiles>  (14) 
O=C1NC(=O)c2c1ccc1c2c2cc(O)ccc2n1CCO

>  <canonical_smi>  (14) 
O=C1NC(=O)c2c1ccc1c2c2cc(O)ccc2n1CCO

>  <Set>  (14) 
G1 active

>  <Set_type>  (14) 
G1

>  <MW>  (14) 
296.28

>  <HBD>  (14) 
3

>  <HBA>  (14) 
4

>  <NRB>  (14) 
2

>  <NR>  (14) 
4

>  <NAR>  (14) 
3

>  <PSA>  (14) 
91.56

>  <Standard Type>  (14) 
nan

>  <Standard Relation>  (14) 
nan

>  <Standard Units>  (14) 
nan

>  <Standard Value>  (14) 
nan

>  <Assay ChEMBL ID>  (14) 
nan

>  <Assay Description>  (14) 
nan

>  <BAO Label>  (14) 
nan

$$$$

     RDKit          2D

 26 30  0  0  0  0  0  0  0  0999 V2000
   -4.8180   -6.5097    0.0000 O   0  0  0  0  0  0  0  0  0  0  0  0
   -4.2079   -5.1394    0.0000 C   0  0  0  0  0  0  0  0  0  0  0  0
   -4.9579   -3.8403    0.0000 N   0  0  0  0  0  0  0  0  0  0  0  0
   -3.9542   -2.7256    0.0000 C   0  0  0  0  0  0  0  0  0  0  0  0
   -4.2660   -1.2584    0.0000 O   0  0  0  0  0  0  0  0  0  0  0  0
   -2.5838   -3.3357    0.0000 C   0  0  0  0  0  0  0  0  0  0  0  0
   -2.7406   -4.8275    0.0000 C   0  0  0  0  0  0  0  0  0  0  0  0
   -1.5271   -5.7092    0.0000 C   0  0  0  0  0  0  0  0  0  0  0  0
   -1.6839   -7.2010    0.0000 C   0  0  0  0  0  0  0  0  0  0  0  0
   -3.0542   -7.8111    0.0000 C   0  0  0  0  0  0  0  0  0  0  0  0
   -3.2110   -9.3029    0.0000 C   0  0  0  0  0  0  0  0  0  0  0  0
   -1.9975  -10.1845    0.0000 C   0  0  0  0  0  0  0  0  0  0  0  0
   -0.6272   -9.5744    0.0000 C   0  0  0  0  0  0  0  0  0  0  0  0
   -0.4704   -8.0826    0.0000 C   0  0  0  0  0  0  0  0  0  0  0  0
    0.8999   -7.4725    0.0000 Cl  0  0  0  0  0  0  0  0  0  0  0  0
   -0.1568   -5.0991    0.0000 C   0  0  0  0  0  0  0  0  0  0  0  0
   -0.0000   -3.6073    0.0000 C   0  0  0  0  0  0  0  0  0  0  0  0
    1.2135   -2.7256    0.0000 O   0  0  0  0  0  0  0  0  0  0  0  0
    0.7500   -1.2990    0.0000 C   0  0  0  0  0  0  0  0  0  0  0  0
    1.5000    0.0000    0.0000 C   0  0  0  0  0  0  0  0  0  0  0  0
    0.7500    1.2990    0.0000 C   0  0  0  0  0  0  0  0  0  0  0  0
   -0.7500    1.2990    0.0000 C   0  0  0  0  0  0  0  0  0  0  0  0
   -1.5000    2.5981    0.0000 O   0  0  0  0  0  0  0  0  0  0  0  0
   -1.5000    0.0000    0.0000 C   0  0  0  0  0  0  0  0  0  0  0  0
   -0.7500   -1.2990    0.0000 C   0  0  0  0  0  0  0  0  0  0  0  0
   -1.2135   -2.7256    0.0000 C   0  0  0  0  0  0  0  0  0  0  0  0
  1  2  2  0
  2  3  1  0
  3  4  1  0
  4  5  2  0
  4  6  1  0
  6  7  2  0
  7  8  1  0
  8  9  1  0
  9 10  2  0
 10 11  1  0
 11 12  2  0
 12 13  1  0
 13 14  2  0
 14 15  1  0
  8 16  2  0
 16 17  1  0
 17 18  1  0
 18 19  1  0
 19 20  2  0
 20 21  1  0
 21 22  2  0
 22 23  1  0
 22 24  1  0
 24 25  2  0
 25 26  1  0
  7  2  1  0
 14  9  1  0
 26 17  2  0
 26  6  1  0
 25 19  1  0
M  END
>  <Compound_ID>  (15) 
CHEMBL386398

>  <Active>  (15) 
1

>  <Smiles>  (15) 
O=C1NC(=O)c2c1c(-c1ccccc1Cl)cc1oc3ccc(O)cc3c21

>  <canonical_smi>  (15) 
O=C1NC(=O)c2c1c(-c1ccccc1Cl)cc1oc3ccc(O)cc3c21

>  <Set>  (15) 
G1 active

>  <Set_type>  (15) 
G1

>  <MW>  (15) 
363.76

>  <HBD>  (15) 
2

>  <HBA>  (15) 
4

>  <NRB>  (15) 
1

>  <NR>  (15) 
5

>  <NAR>  (15) 
4

>  <PSA>  (15) 
79.54

>  <Standard Type>  (15) 
nan

>  <Standard Relation>  (15) 
nan

>  <Standard Units>  (15) 
nan

>  <Standard Value>  (15) 
nan

>  <Assay ChEMBL ID>  (15) 
nan

>  <Assay Description>  (15) 
nan

>  <BAO Label>  (15) 
nan

$$$$

     RDKit          2D

 37 42  0  0  0  0  0  0  0  0999 V2000
    2.6401   -3.1891    0.0000 C   0  0  0  0  0  0  0  0  0  0  0  0
    1.2135   -2.7256    0.0000 N   0  0  0  0  0  0  0  0  0  0  0  0
    0.7500   -1.2990    0.0000 C   0  0  0  0  0  0  0  0  0  0  0  0
    1.5000    0.0000    0.0000 C   0  0  0  0  0  0  0  0  0  0  0  0
    0.7500    1.2990    0.0000 C   0  0  0  0  0  0  0  0  0  0  0  0
    1.5000    2.5981    0.0000 S   0  0  0  0  0  0  0  0  0  0  0  0
    0.7500    3.8971    0.0000 O   0  0  0  0  0  0  0  0  0  0  0  0
    3.0000    2.5981    0.0000 C   0  0  0  0  0  0  0  0  0  0  0  0
    3.7500    3.8971    0.0000 C   0  0  0  0  0  0  0  0  0  0  0  0
    5.2500    3.8971    0.0000 C   0  0  0  0  0  0  0  0  0  0  0  0
    6.0000    5.1962    0.0000 N   0  0  0  0  0  0  0  0  0  0  0  0
    5.3899    6.5665    0.0000 C   0  0  0  0  0  0  0  0  0  0  0  0
    6.5046    7.5702    0.0000 C   0  0  0  0  0  0  0  0  0  0  0  0
    7.8037    6.8202    0.0000 C   0  0  0  0  0  0  0  0  0  0  0  0
    7.4918    5.3529    0.0000 C   0  0  0  0  0  0  0  0  0  0  0  0
   -0.7500    1.2990    0.0000 C   0  0  0  0  0  0  0  0  0  0  0  0
   -1.5000    2.5981    0.0000 O   0  0  0  0  0  0  0  0  0  0  0  0
   -1.5000    0.0000    0.0000 C   0  0  0  0  0  0  0  0  0  0  0  0
   -0.7500   -1.2990    0.0000 C   0  0  0  0  0  0  0  0  0  0  0  0
   -1.2135   -2.7256    0.0000 C   0  0  0  0  0  0  0  0  0  0  0  0
   -2.5838   -3.3357    0.0000 C   0  0  0  0  0  0  0  0  0  0  0  0
   -2.7406   -4.8275    0.0000 C   0  0  0  0  0  0  0  0  0  0  0  0
   -1.5271   -5.7092    0.0000 C   0  0  0  0  0  0  0  0  0  0  0  0
   -1.6839   -7.2010    0.0000 C   0  0  0  0  0  0  0  0  0  0  0  0
   -3.0542   -7.8111    0.0000 C   0  0  0  0  0  0  0  0  0  0  0  0
   -3.2110   -9.3029    0.0000 C   0  0  0  0  0  0  0  0  0  0  0  0
   -1.9975  -10.1845    0.0000 C   0  0  0  0  0  0  0  0  0  0  0  0
   -0.6272   -9.5744    0.0000 C   0  0  0  0  0  0  0  0  0  0  0  0
   -0.4704   -8.0826    0.0000 C   0  0  0  0  0  0  0  0  0  0  0  0
    0.8999   -7.4725    0.0000 Cl  0  0  0  0  0  0  0  0  0  0  0  0
   -0.1568   -5.0991    0.0000 C   0  0  0  0  0  0  0  0  0  0  0  0
   -0.0000   -3.6073    0.0000 C   0  0  0  0  0  0  0  0  0  0  0  0
   -4.2079   -5.1394    0.0000 C   0  0  0  0  0  0  0  0  0  0  0  0
   -4.8180   -6.5097    0.0000 O   0  0  0  0  0  0  0  0  0  0  0  0
   -4.9579   -3.8403    0.0000 N   0  0  0  0  0  0  0  0  0  0  0  0
   -3.9542   -2.7256    0.0000 C   0  0  0  0  0  0  0  0  0  0  0  0
   -4.2660   -1.2584    0.0000 O   0  0  0  0  0  0  0  0  0  0  0  0
  1  2  1  0
  2  3  1  0
  3  4  2  0
  4  5  1  0
  5  6  1  0
  6  7  2  0
  6  8  1  0
  8  9  1  0
  9 10  1  0
 10 11  1  0
 11 12  1  0
 12 13  2  0
 13 14  1  0
 14 15  2  0
  5 16  2  0
 16 17  1  0
 16 18  1  0
 18 19  2  0
 19 20  1  0
 20 21  2  0
 21 22  1  0
 22 23  2  0
 23 24  1  0
 24 25  2  0
 25 26  1  0
 26 27  2  0
 27 28  1  0
 28 29  2  0
 29 30  1  0
 23 31  1  0
 31 32  2  0
 22 33  1  0
 33 34  2  0
 33 35  1  0
 35 36  1  0
 36 37  2  0
 32  2  1  0
 19  3  1  0
 32 20  1  0
 15 11  1  0
 36 21  1  0
 29 24  1  0
M  END
>  <Compound_ID>  (16) 
CHEMBL475524

>  <Active>  (16) 
1

>  <Smiles>  (16) 
Cn1c2cc(S(=O)CCCn3cccc3)c(O)cc2c2c3c(c(-c4ccccc4Cl)cc21)C(=O)NC3=O

>  <canonical_smi>  (16) 
Cn1c2cc(S(=O)CCCn3cccc3)c(O)cc2c2c3c(c(-c4ccccc4Cl)cc21)C(=O)NC3=O

>  <Set>  (16) 
G1 active

>  <Set_type>  (16) 
G1

>  <MW>  (16) 
532.02

>  <HBD>  (16) 
2

>  <HBA>  (16) 
4

>  <NRB>  (16) 
6

>  <NR>  (16) 
6

>  <NAR>  (16) 
5

>  <PSA>  (16) 
93.33

>  <Standard Type>  (16) 
nan

>  <Standard Relation>  (16) 
nan

>  <Standard Units>  (16) 
nan

>  <Standard Value>  (16) 
nan

>  <Assay ChEMBL ID>  (16) 
nan

>  <Assay Description>  (16) 
nan

>  <BAO Label>  (16) 
nan

$$$$

     RDKit          2D

 35 40  0  0  0  0  0  0  0  0999 V2000
   -4.8180   -6.5097    0.0000 O   0  0  0  0  0  0  0  0  0  0  0  0
   -4.2079   -5.1394    0.0000 C   0  0  0  0  0  0  0  0  0  0  0  0
   -4.9579   -3.8403    0.0000 N   0  0  0  0  0  0  0  0  0  0  0  0
   -3.9542   -2.7256    0.0000 C   0  0  0  0  0  0  0  0  0  0  0  0
   -4.2660   -1.2584    0.0000 O   0  0  0  0  0  0  0  0  0  0  0  0
   -2.5838   -3.3357    0.0000 C   0  0  0  0  0  0  0  0  0  0  0  0
   -2.7406   -4.8275    0.0000 C   0  0  0  0  0  0  0  0  0  0  0  0
   -1.5271   -5.7092    0.0000 C   0  0  0  0  0  0  0  0  0  0  0  0
   -1.6839   -7.2010    0.0000 C   0  0  0  0  0  0  0  0  0  0  0  0
   -3.0542   -7.8111    0.0000 C   0  0  0  0  0  0  0  0  0  0  0  0
   -3.2110   -9.3029    0.0000 C   0  0  0  0  0  0  0  0  0  0  0  0
   -1.9975  -10.1845    0.0000 C   0  0  0  0  0  0  0  0  0  0  0  0
   -0.6272   -9.5744    0.0000 C   0  0  0  0  0  0  0  0  0  0  0  0
   -0.4704   -8.0826    0.0000 C   0  0  0  0  0  0  0  0  0  0  0  0
    0.8999   -7.4725    0.0000 Cl  0  0  0  0  0  0  0  0  0  0  0  0
   -0.1568   -5.0991    0.0000 C   0  0  0  0  0  0  0  0  0  0  0  0
   -0.0000   -3.6073    0.0000 C   0  0  0  0  0  0  0  0  0  0  0  0
    1.2135   -2.7256    0.0000 N   0  0  0  0  0  0  0  0  0  0  0  0
    0.7500   -1.2990    0.0000 C   0  0  0  0  0  0  0  0  0  0  0  0
    1.5000    0.0000    0.0000 C   0  0  0  0  0  0  0  0  0  0  0  0
    0.7500    1.2990    0.0000 C   0  0  0  0  0  0  0  0  0  0  0  0
    1.5000    2.5981    0.0000 O   0  0  0  0  0  0  0  0  0  0  0  0
    3.0000    2.5981    0.0000 C   0  0  0  0  0  0  0  0  0  0  0  0
    3.7500    3.8971    0.0000 C   0  0  0  0  0  0  0  0  0  0  0  0
    5.2500    3.8971    0.0000 C   0  0  0  0  0  0  0  0  0  0  0  0
    6.0000    5.1962    0.0000 N   0  0  0  0  0  0  0  0  0  0  0  0
    5.3899    6.5665    0.0000 C   0  0  0  0  0  0  0  0  0  0  0  0
    6.5046    7.5702    0.0000 C   0  0  0  0  0  0  0  0  0  0  0  0
    7.8037    6.8202    0.0000 C   0  0  0  0  0  0  0  0  0  0  0  0
    7.4918    5.3529    0.0000 C   0  0  0  0  0  0  0  0  0  0  0  0
   -0.7500    1.2990    0.0000 C   0  0  0  0  0  0  0  0  0  0  0  0
   -1.5000    2.5981    0.0000 O   0  0  0  0  0  0  0  0  0  0  0  0
   -1.5000    0.0000    0.0000 C   0  0  0  0  0  0  0  0  0  0  0  0
   -0.7500   -1.2990    0.0000 C   0  0  0  0  0  0  0  0  0  0  0  0
   -1.2135   -2.7256    0.0000 C   0  0  0  0  0  0  0  0  0  0  0  0
  1  2  2  0
  2  3  1  0
  3  4  1  0
  4  5  2  0
  4  6  1  0
  6  7  2  0
  7  8  1  0
  8  9  1  0
  9 10  2  0
 10 11  1  0
 11 12  2  0
 12 13  1  0
 13 14  2  0
 14 15  1  0
  8 16  2  0
 16 17  1  0
 17 18  1  0
 18 19  1  0
 19 20  2  0
 20 21  1  0
 21 22  1  0
 22 23  1  0
 23 24  1  0
 24 25  1  0
 25 26  1  0
 26 27  1  0
 27 28  2  0
 28 29  1  0
 29 30  2  0
 21 31  2  0
 31 32  1  0
 31 33  1  0
 33 34  2  0
 34 35  1  0
  7  2  1  0
 14  9  1  0
 35 17  2  0
 35  6  1  0
 34 19  1  0
 30 26  1  0
M  END
>  <Compound_ID>  (17) 
CHEMBL485638

>  <Active>  (17) 
1

>  <Smiles>  (17) 
O=C1NC(=O)c2c1c(-c1ccccc1Cl)cc1[nH]c3cc(OCCCn4cccc4)c(O)cc3c21

>  <canonical_smi>  (17) 
O=C1NC(=O)c2c1c(-c1ccccc1Cl)cc1[nH]c3cc(OCCCn4cccc4)c(O)cc3c21

>  <Set>  (17) 
G1 active

>  <Set_type>  (17) 
G1

>  <MW>  (17) 
485.93

>  <HBD>  (17) 
3

>  <HBA>  (17) 
4

>  <NRB>  (17) 
6

>  <NR>  (17) 
6

>  <NAR>  (17) 
5

>  <PSA>  (17) 
96.35

>  <Standard Type>  (17) 
nan

>  <Standard Relation>  (17) 
nan

>  <Standard Units>  (17) 
nan

>  <Standard Value>  (17) 
nan

>  <Assay ChEMBL ID>  (17) 
nan

>  <Assay Description>  (17) 
nan

>  <BAO Label>  (17) 
nan

$$$$

     RDKit          2D

 36 41  0  0  0  0  0  0  0  0999 V2000
    2.6401   -3.1891    0.0000 C   0  0  0  0  0  0  0  0  0  0  0  0
    1.2135   -2.7256    0.0000 N   0  0  0  0  0  0  0  0  0  0  0  0
    0.7500   -1.2990    0.0000 C   0  0  0  0  0  0  0  0  0  0  0  0
    1.5000    0.0000    0.0000 C   0  0  0  0  0  0  0  0  0  0  0  0
    0.7500    1.2990    0.0000 C   0  0  0  0  0  0  0  0  0  0  0  0
    1.5000    2.5981    0.0000 C   0  0  0  0  0  0  0  0  0  0  0  0
    3.0000    2.5981    0.0000 C   0  0  0  0  0  0  0  0  0  0  0  0
    3.7500    3.8971    0.0000 C   0  0  0  0  0  0  0  0  0  0  0  0
    5.2500    3.8971    0.0000 C   0  0  0  0  0  0  0  0  0  0  0  0
    6.0000    5.1962    0.0000 N   0  0  0  0  0  0  0  0  0  0  0  0
    5.3899    6.5665    0.0000 C   0  0  0  0  0  0  0  0  0  0  0  0
    6.5046    7.5702    0.0000 C   0  0  0  0  0  0  0  0  0  0  0  0
    7.8037    6.8202    0.0000 C   0  0  0  0  0  0  0  0  0  0  0  0
    7.4918    5.3529    0.0000 C   0  0  0  0  0  0  0  0  0  0  0  0
   -0.7500    1.2990    0.0000 C   0  0  0  0  0  0  0  0  0  0  0  0
   -1.5000    2.5981    0.0000 O   0  0  0  0  0  0  0  0  0  0  0  0
   -1.5000    0.0000    0.0000 C   0  0  0  0  0  0  0  0  0  0  0  0
   -0.7500   -1.2990    0.0000 C   0  0  0  0  0  0  0  0  0  0  0  0
   -1.2135   -2.7256    0.0000 C   0  0  0  0  0  0  0  0  0  0  0  0
   -2.5838   -3.3357    0.0000 C   0  0  0  0  0  0  0  0  0  0  0  0
   -2.7406   -4.8275    0.0000 C   0  0  0  0  0  0  0  0  0  0  0  0
   -1.5271   -5.7092    0.0000 C   0  0  0  0  0  0  0  0  0  0  0  0
   -1.6839   -7.2010    0.0000 C   0  0  0  0  0  0  0  0  0  0  0  0
   -3.0542   -7.8111    0.0000 C   0  0  0  0  0  0  0  0  0  0  0  0
   -3.2110   -9.3029    0.0000 C   0  0  0  0  0  0  0  0  0  0  0  0
   -1.9975  -10.1845    0.0000 C   0  0  0  0  0  0  0  0  0  0  0  0
   -0.6272   -9.5744    0.0000 C   0  0  0  0  0  0  0  0  0  0  0  0
   -0.4704   -8.0826    0.0000 C   0  0  0  0  0  0  0  0  0  0  0  0
    0.8999   -7.4725    0.0000 Cl  0  0  0  0  0  0  0  0  0  0  0  0
   -0.1568   -5.0991    0.0000 C   0  0  0  0  0  0  0  0  0  0  0  0
   -0.0000   -3.6073    0.0000 C   0  0  0  0  0  0  0  0  0  0  0  0
   -4.2079   -5.1394    0.0000 C   0  0  0  0  0  0  0  0  0  0  0  0
   -4.8180   -6.5097    0.0000 O   0  0  0  0  0  0  0  0  0  0  0  0
   -4.9579   -3.8403    0.0000 N   0  0  0  0  0  0  0  0  0  0  0  0
   -3.9542   -2.7256    0.0000 C   0  0  0  0  0  0  0  0  0  0  0  0
   -4.2660   -1.2584    0.0000 O   0  0  0  0  0  0  0  0  0  0  0  0
  1  2  1  0
  2  3  1  0
  3  4  2  0
  4  5  1  0
  5  6  1  0
  6  7  1  0
  7  8  1  0
  8  9  1  0
  9 10  1  0
 10 11  1  0
 11 12  2  0
 12 13  1  0
 13 14  2  0
  5 15  2  0
 15 16  1  0
 15 17  1  0
 17 18  2  0
 18 19  1  0
 19 20  2  0
 20 21  1  0
 21 22  2  0
 22 23  1  0
 23 24  2  0
 24 25  1  0
 25 26  2  0
 26 27  1  0
 27 28  2  0
 28 29  1  0
 22 30  1  0
 30 31  2  0
 21 32  1  0
 32 33  2  0
 32 34  1  0
 34 35  1  0
 35 36  2  0
 31  2  1  0
 18  3  1  0
 31 19  1  0
 14 10  1  0
 35 20  1  0
 28 23  1  0
M  END
>  <Compound_ID>  (18) 
CHEMBL488783

>  <Active>  (18) 
1

>  <Smiles>  (18) 
Cn1c2cc(CCCCn3cccc3)c(O)cc2c2c3c(c(-c4ccccc4Cl)cc21)C(=O)NC3=O

>  <canonical_smi>  (18) 
Cn1c2cc(CCCCn3cccc3)c(O)cc2c2c3c(c(-c4ccccc4Cl)cc21)C(=O)NC3=O

>  <Set>  (18) 
G1 active

>  <Set_type>  (18) 
G1

>  <MW>  (18) 
497.98

>  <HBD>  (18) 
2

>  <HBA>  (18) 
3

>  <NRB>  (18) 
6

>  <NR>  (18) 
6

>  <NAR>  (18) 
5

>  <PSA>  (18) 
76.26

>  <Standard Type>  (18) 
nan

>  <Standard Relation>  (18) 
nan

>  <Standard Units>  (18) 
nan

>  <Standard Value>  (18) 
nan

>  <Assay ChEMBL ID>  (18) 
nan

>  <Assay Description>  (18) 
nan

>  <BAO Label>  (18) 
nan

$$$$

     RDKit          2D

 24 28  0  0  0  0  0  0  0  0999 V2000
   -4.8180   -6.5097    0.0000 O   0  0  0  0  0  0  0  0  0  0  0  0
   -4.2079   -5.1394    0.0000 C   0  0  0  0  0  0  0  0  0  0  0  0
   -4.9579   -3.8403    0.0000 N   0  0  0  0  0  0  0  0  0  0  0  0
   -3.9542   -2.7256    0.0000 C   0  0  0  0  0  0  0  0  0  0  0  0
   -4.2660   -1.2584    0.0000 O   0  0  0  0  0  0  0  0  0  0  0  0
   -2.5838   -3.3357    0.0000 C   0  0  0  0  0  0  0  0  0  0  0  0
   -2.7406   -4.8275    0.0000 C   0  0  0  0  0  0  0  0  0  0  0  0
   -1.5271   -5.7092    0.0000 C   0  0  0  0  0  0  0  0  0  0  0  0
   -1.6839   -7.2010    0.0000 C   0  0  0  0  0  0  0  0  0  0  0  0
   -0.5692   -8.2047    0.0000 C   0  0  0  0  0  0  0  0  0  0  0  0
   -1.1793   -9.5750    0.0000 C   0  0  0  0  0  0  0  0  0  0  0  0
   -2.6711   -9.4182    0.0000 N   0  0  0  0  0  0  0  0  0  0  0  0
   -2.9829   -7.9510    0.0000 C   0  0  0  0  0  0  0  0  0  0  0  0
   -0.1568   -5.0991    0.0000 C   0  0  0  0  0  0  0  0  0  0  0  0
   -0.0000   -3.6073    0.0000 C   0  0  0  0  0  0  0  0  0  0  0  0
    1.2135   -2.7256    0.0000 N   0  0  0  0  0  0  0  0  0  0  0  0
    0.7500   -1.2990    0.0000 C   0  0  0  0  0  0  0  0  0  0  0  0
    1.5000    0.0000    0.0000 C   0  0  0  0  0  0  0  0  0  0  0  0
    0.7500    1.2990    0.0000 C   0  0  0  0  0  0  0  0  0  0  0  0
   -0.7500    1.2990    0.0000 C   0  0  0  0  0  0  0  0  0  0  0  0
   -1.5000    2.5981    0.0000 O   0  0  0  0  0  0  0  0  0  0  0  0
   -1.5000    0.0000    0.0000 C   0  0  0  0  0  0  0  0  0  0  0  0
   -0.7500   -1.2990    0.0000 C   0  0  0  0  0  0  0  0  0  0  0  0
   -1.2135   -2.7256    0.0000 C   0  0  0  0  0  0  0  0  0  0  0  0
  1  2  2  0
  2  3  1  0
  3  4  1  0
  4  5  2  0
  4  6  1  0
  6  7  2  0
  7  8  1  0
  8  9  1  0
  9 10  1  0
 10 11  2  0
 11 12  1  0
 12 13  1  0
  8 14  2  0
 14 15  1  0
 15 16  1  0
 16 17  1  0
 17 18  2  0
 18 19  1  0
 19 20  2  0
 20 21  1  0
 20 22  1  0
 22 23  2  0
 23 24  1  0
  7  2  1  0
 13  9  2  0
 24 15  2  0
 24  6  1  0
 23 17  1  0
M  END
>  <Compound_ID>  (19) 
CHEMBL213422

>  <Active>  (19) 
1

>  <Smiles>  (19) 
O=C1NC(=O)c2c1c(-c1cc[nH]c1)cc1[nH]c3ccc(O)cc3c21

>  <canonical_smi>  (19) 
O=C1NC(=O)c2c1c(-c1cc[nH]c1)cc1[nH]c3ccc(O)cc3c21

>  <Set>  (19) 
G1 active

>  <Set_type>  (19) 
G1

>  <MW>  (19) 
317.3

>  <HBD>  (19) 
4

>  <HBA>  (19) 
3

>  <NRB>  (19) 
1

>  <NR>  (19) 
5

>  <NAR>  (19) 
4

>  <PSA>  (19) 
97.98

>  <Standard Type>  (19) 
nan

>  <Standard Relation>  (19) 
nan

>  <Standard Units>  (19) 
nan

>  <Standard Value>  (19) 
nan

>  <Assay ChEMBL ID>  (19) 
nan

>  <Assay Description>  (19) 
nan

>  <BAO Label>  (19) 
nan

$$$$

     RDKit          2D

 38 43  0  0  0  0  0  0  0  0999 V2000
    2.6401   -3.1891    0.0000 C   0  0  0  0  0  0  0  0  0  0  0  0
    1.2135   -2.7256    0.0000 N   0  0  0  0  0  0  0  0  0  0  0  0
    0.7500   -1.2990    0.0000 C   0  0  0  0  0  0  0  0  0  0  0  0
    1.5000    0.0000    0.0000 C   0  0  0  0  0  0  0  0  0  0  0  0
    0.7500    1.2990    0.0000 C   0  0  0  0  0  0  0  0  0  0  0  0
    1.5000    2.5981    0.0000 S   0  0  0  0  0  0  0  0  0  0  0  0
    2.7990    1.8481    0.0000 O   0  0  0  0  0  0  0  0  0  0  0  0
    0.2010    3.3481    0.0000 O   0  0  0  0  0  0  0  0  0  0  0  0
    2.2500    3.8971    0.0000 N   0  0  0  0  0  0  0  0  0  0  0  0
    1.5000    5.1962    0.0000 C   0  0  0  0  0  0  0  0  0  0  0  0
    2.2500    6.4952    0.0000 C   0  0  0  0  0  0  0  0  0  0  0  0
    1.5000    7.7942    0.0000 N   0  0  0  0  0  0  0  0  0  0  0  0
    0.0082    7.9510    0.0000 C   0  0  0  0  0  0  0  0  0  0  0  0
   -0.3037    9.4182    0.0000 C   0  0  0  0  0  0  0  0  0  0  0  0
    0.9954   10.1682    0.0000 C   0  0  0  0  0  0  0  0  0  0  0  0
    2.1101    9.1645    0.0000 C   0  0  0  0  0  0  0  0  0  0  0  0
   -0.7500    1.2990    0.0000 C   0  0  0  0  0  0  0  0  0  0  0  0
   -1.5000    2.5981    0.0000 O   0  0  0  0  0  0  0  0  0  0  0  0
   -1.5000    0.0000    0.0000 C   0  0  0  0  0  0  0  0  0  0  0  0
   -0.7500   -1.2990    0.0000 C   0  0  0  0  0  0  0  0  0  0  0  0
   -1.2135   -2.7256    0.0000 C   0  0  0  0  0  0  0  0  0  0  0  0
   -2.5838   -3.3357    0.0000 C   0  0  0  0  0  0  0  0  0  0  0  0
   -2.7406   -4.8275    0.0000 C   0  0  0  0  0  0  0  0  0  0  0  0
   -1.5271   -5.7092    0.0000 C   0  0  0  0  0  0  0  0  0  0  0  0
   -1.6839   -7.2010    0.0000 C   0  0  0  0  0  0  0  0  0  0  0  0
   -3.0542   -7.8111    0.0000 C   0  0  0  0  0  0  0  0  0  0  0  0
   -3.2110   -9.3029    0.0000 C   0  0  0  0  0  0  0  0  0  0  0  0
   -1.9975  -10.1845    0.0000 C   0  0  0  0  0  0  0  0  0  0  0  0
   -0.6272   -9.5744    0.0000 C   0  0  0  0  0  0  0  0  0  0  0  0
   -0.4704   -8.0826    0.0000 C   0  0  0  0  0  0  0  0  0  0  0  0
    0.8999   -7.4725    0.0000 Cl  0  0  0  0  0  0  0  0  0  0  0  0
   -0.1568   -5.0991    0.0000 C   0  0  0  0  0  0  0  0  0  0  0  0
   -0.0000   -3.6073    0.0000 C   0  0  0  0  0  0  0  0  0  0  0  0
   -4.2079   -5.1394    0.0000 C   0  0  0  0  0  0  0  0  0  0  0  0
   -4.8180   -6.5097    0.0000 O   0  0  0  0  0  0  0  0  0  0  0  0
   -4.9579   -3.8403    0.0000 N   0  0  0  0  0  0  0  0  0  0  0  0
   -3.9542   -2.7256    0.0000 C   0  0  0  0  0  0  0  0  0  0  0  0
   -4.2660   -1.2584    0.0000 O   0  0  0  0  0  0  0  0  0  0  0  0
  1  2  1  0
  2  3  1  0
  3  4  2  0
  4  5  1  0
  5  6  1  0
  6  7  2  0
  6  8  2  0
  6  9  1  0
  9 10  1  0
 10 11  1  0
 11 12  1  0
 12 13  1  0
 13 14  2  0
 14 15  1  0
 15 16  2  0
  5 17  2  0
 17 18  1  0
 17 19  1  0
 19 20  2  0
 20 21  1  0
 21 22  2  0
 22 23  1  0
 23 24  2  0
 24 25  1  0
 25 26  2  0
 26 27  1  0
 27 28  2  0
 28 29  1  0
 29 30  2  0
 30 31  1  0
 24 32  1  0
 32 33  2  0
 23 34  1  0
 34 35  2  0
 34 36  1  0
 36 37  1  0
 37 38  2  0
 33  2  1  0
 20  3  1  0
 33 21  1  0
 16 12  1  0
 37 22  1  0
 30 25  1  0
M  END
>  <Compound_ID>  (20) 
CHEMBL514192

>  <Active>  (20) 
1

>  <Smiles>  (20) 
Cn1c2cc(S(=O)(=O)NCCn3cccc3)c(O)cc2c2c3c(c(-c4ccccc4Cl)cc21)C(=O)NC3=O

>  <canonical_smi>  (20) 
Cn1c2cc(S(=O)(=O)NCCn3cccc3)c(O)cc2c2c3c(c(-c4ccccc4Cl)cc21)C(=O)NC3=O

>  <Set>  (20) 
G1 active

>  <Set_type>  (20) 
G1

>  <MW>  (20) 
549.01

>  <HBD>  (20) 
3

>  <HBA>  (20) 
5

>  <NRB>  (20) 
6

>  <NR>  (20) 
6

>  <NAR>  (20) 
5

>  <PSA>  (20) 
122.43

>  <Standard Type>  (20) 
nan

>  <Standard Relation>  (20) 
nan

>  <Standard Units>  (20) 
nan

>  <Standard Value>  (20) 
nan

>  <Assay ChEMBL ID>  (20) 
nan

>  <Assay Description>  (20) 
nan

>  <BAO Label>  (20) 
nan

$$$$

     RDKit          2D

 35 40  0  0  0  0  0  0  0  0999 V2000
   -4.8180   -6.5097    0.0000 O   0  0  0  0  0  0  0  0  0  0  0  0
   -4.2079   -5.1394    0.0000 C   0  0  0  0  0  0  0  0  0  0  0  0
   -4.9579   -3.8403    0.0000 N   0  0  0  0  0  0  0  0  0  0  0  0
   -3.9542   -2.7256    0.0000 C   0  0  0  0  0  0  0  0  0  0  0  0
   -4.2660   -1.2584    0.0000 O   0  0  0  0  0  0  0  0  0  0  0  0
   -2.5838   -3.3357    0.0000 C   0  0  0  0  0  0  0  0  0  0  0  0
   -2.7406   -4.8275    0.0000 C   0  0  0  0  0  0  0  0  0  0  0  0
   -1.5271   -5.7092    0.0000 C   0  0  0  0  0  0  0  0  0  0  0  0
   -1.6839   -7.2010    0.0000 C   0  0  0  0  0  0  0  0  0  0  0  0
   -3.0542   -7.8111    0.0000 C   0  0  0  0  0  0  0  0  0  0  0  0
   -3.2110   -9.3029    0.0000 C   0  0  0  0  0  0  0  0  0  0  0  0
   -1.9975  -10.1845    0.0000 C   0  0  0  0  0  0  0  0  0  0  0  0
   -0.6272   -9.5744    0.0000 C   0  0  0  0  0  0  0  0  0  0  0  0
   -0.4704   -8.0826    0.0000 C   0  0  0  0  0  0  0  0  0  0  0  0
    0.8999   -7.4725    0.0000 Cl  0  0  0  0  0  0  0  0  0  0  0  0
   -0.1568   -5.0991    0.0000 C   0  0  0  0  0  0  0  0  0  0  0  0
   -0.0000   -3.6073    0.0000 C   0  0  0  0  0  0  0  0  0  0  0  0
    1.2135   -2.7256    0.0000 N   0  0  0  0  0  0  0  0  0  0  0  0
    0.7500   -1.2990    0.0000 C   0  0  0  0  0  0  0  0  0  0  0  0
    1.5000    0.0000    0.0000 C   0  0  0  0  0  0  0  0  0  0  0  0
    0.7500    1.2990    0.0000 C   0  0  0  0  0  0  0  0  0  0  0  0
    1.5000    2.5981    0.0000 C   0  0  0  0  0  0  0  0  0  0  0  0
    3.0000    2.5981    0.0000 C   0  0  0  0  0  0  0  0  0  0  0  0
    3.7500    3.8971    0.0000 C   0  0  0  0  0  0  0  0  0  0  0  0
    5.2500    3.8971    0.0000 C   0  0  0  0  0  0  0  0  0  0  0  0
    6.0000    5.1962    0.0000 N   0  0  0  0  0  0  0  0  0  0  0  0
    5.3899    6.5665    0.0000 C   0  0  0  0  0  0  0  0  0  0  0  0
    6.5046    7.5702    0.0000 C   0  0  0  0  0  0  0  0  0  0  0  0
    7.8037    6.8202    0.0000 C   0  0  0  0  0  0  0  0  0  0  0  0
    7.4918    5.3529    0.0000 C   0  0  0  0  0  0  0  0  0  0  0  0
   -0.7500    1.2990    0.0000 C   0  0  0  0  0  0  0  0  0  0  0  0
   -1.5000    2.5981    0.0000 O   0  0  0  0  0  0  0  0  0  0  0  0
   -1.5000    0.0000    0.0000 C   0  0  0  0  0  0  0  0  0  0  0  0
   -0.7500   -1.2990    0.0000 C   0  0  0  0  0  0  0  0  0  0  0  0
   -1.2135   -2.7256    0.0000 C   0  0  0  0  0  0  0  0  0  0  0  0
  1  2  2  0
  2  3  1  0
  3  4  1  0
  4  5  2  0
  4  6  1  0
  6  7  2  0
  7  8  1  0
  8  9  1  0
  9 10  2  0
 10 11  1  0
 11 12  2  0
 12 13  1  0
 13 14  2  0
 14 15  1  0
  8 16  2  0
 16 17  1  0
 17 18  1  0
 18 19  1  0
 19 20  2  0
 20 21  1  0
 21 22  1  0
 22 23  1  0
 23 24  1  0
 24 25  1  0
 25 26  1  0
 26 27  1  0
 27 28  2  0
 28 29  1  0
 29 30  2  0
 21 31  2  0
 31 32  1  0
 31 33  1  0
 33 34  2  0
 34 35  1  0
  7  2  1  0
 14  9  1  0
 35 17  2  0
 35  6  1  0
 34 19  1  0
 30 26  1  0
M  END
>  <Compound_ID>  (21) 
CHEMBL518903

>  <Active>  (21) 
1

>  <Smiles>  (21) 
O=C1NC(=O)c2c1c(-c1ccccc1Cl)cc1[nH]c3cc(CCCCn4cccc4)c(O)cc3c21

>  <canonical_smi>  (21) 
O=C1NC(=O)c2c1c(-c1ccccc1Cl)cc1[nH]c3cc(CCCCn4cccc4)c(O)cc3c21

>  <Set>  (21) 
G1 active

>  <Set_type>  (21) 
G1

>  <MW>  (21) 
483.96

>  <HBD>  (21) 
3

>  <HBA>  (21) 
3

>  <NRB>  (21) 
6

>  <NR>  (21) 
6

>  <NAR>  (21) 
5

>  <PSA>  (21) 
87.12

>  <Standard Type>  (21) 
nan

>  <Standard Relation>  (21) 
nan

>  <Standard Units>  (21) 
nan

>  <Standard Value>  (21) 
nan

>  <Assay ChEMBL ID>  (21) 
nan

>  <Assay Description>  (21) 
nan

>  <BAO Label>  (21) 
nan

$$$$

     RDKit          2D

 37 42  0  0  0  0  0  0  0  0999 V2000
    5.6260  -10.9888    0.0000 C   0  0  0  0  0  0  0  0  0  0  0  0
    5.3142   -9.5216    0.0000 N   0  0  0  0  0  0  0  0  0  0  0  0
    3.8876   -9.0580    0.0000 C   0  0  0  0  0  0  0  0  0  0  0  0
    3.5757   -7.5908    0.0000 C   0  0  0  0  0  0  0  0  0  0  0  0
    4.6904   -6.5871    0.0000 N   0  0  0  0  0  0  0  0  0  0  0  0
    4.3786   -5.1199    0.0000 C   0  0  0  0  0  0  0  0  0  0  0  0
    2.9520   -4.6564    0.0000 C   0  0  0  0  0  0  0  0  0  0  0  0
    2.6401   -3.1891    0.0000 C   0  0  0  0  0  0  0  0  0  0  0  0
    1.2135   -2.7256    0.0000 N   0  0  0  0  0  0  0  0  0  0  0  0
    0.7500   -1.2990    0.0000 C   0  0  0  0  0  0  0  0  0  0  0  0
    1.5000    0.0000    0.0000 C   0  0  0  0  0  0  0  0  0  0  0  0
    0.7500    1.2990    0.0000 C   0  0  0  0  0  0  0  0  0  0  0  0
   -0.7500    1.2990    0.0000 C   0  0  0  0  0  0  0  0  0  0  0  0
   -1.5000    2.5981    0.0000 O   0  0  0  0  0  0  0  0  0  0  0  0
   -1.5000    0.0000    0.0000 C   0  0  0  0  0  0  0  0  0  0  0  0
   -0.7500   -1.2990    0.0000 C   0  0  0  0  0  0  0  0  0  0  0  0
   -1.2135   -2.7256    0.0000 C   0  0  0  0  0  0  0  0  0  0  0  0
   -2.5838   -3.3357    0.0000 C   0  0  0  0  0  0  0  0  0  0  0  0
   -2.7406   -4.8275    0.0000 C   0  0  0  0  0  0  0  0  0  0  0  0
   -1.5271   -5.7092    0.0000 C   0  0  0  0  0  0  0  0  0  0  0  0
   -1.6839   -7.2010    0.0000 C   0  0  0  0  0  0  0  0  0  0  0  0
   -0.4704   -8.0826    0.0000 C   0  0  0  0  0  0  0  0  0  0  0  0
    0.8999   -7.4725    0.0000 Cl  0  0  0  0  0  0  0  0  0  0  0  0
   -0.6272   -9.5744    0.0000 C   0  0  0  0  0  0  0  0  0  0  0  0
   -1.9975  -10.1845    0.0000 C   0  0  0  0  0  0  0  0  0  0  0  0
   -3.2110   -9.3029    0.0000 C   0  0  0  0  0  0  0  0  0  0  0  0
   -3.0542   -7.8111    0.0000 C   0  0  0  0  0  0  0  0  0  0  0  0
   -4.2350   -7.1566    0.0000 Cl  0  0  0  0  0  0  0  0  0  0  0  0
   -0.1568   -5.0991    0.0000 C   0  0  0  0  0  0  0  0  0  0  0  0
   -0.0000   -3.6073    0.0000 C   0  0  0  0  0  0  0  0  0  0  0  0
   -4.2079   -5.1394    0.0000 C   0  0  0  0  0  0  0  0  0  0  0  0
   -4.9032   -6.2965    0.0000 O   0  0  0  0  0  0  0  0  0  0  0  0
   -4.9579   -3.8403    0.0000 N   0  0  0  0  0  0  0  0  0  0  0  0
   -3.9542   -2.7256    0.0000 C   0  0  0  0  0  0  0  0  0  0  0  0
   -4.2660   -1.2584    0.0000 O   0  0  0  0  0  0  0  0  0  0  0  0
    6.1170   -7.0506    0.0000 C   0  0  0  0  0  0  0  0  0  0  0  0
    6.4289   -8.5179    0.0000 C   0  0  0  0  0  0  0  0  0  0  0  0
  1  2  1  0
  2  3  1  0
  3  4  1  0
  4  5  1  0
  5  6  1  0
  6  7  1  0
  7  8  1  0
  8  9  1  0
  9 10  1  0
 10 11  2  0
 11 12  1  0
 12 13  2  0
 13 14  1  0
 13 15  1  0
 15 16  2  0
 16 17  1  0
 17 18  2  0
 18 19  1  0
 19 20  2  0
 20 21  1  0
 21 22  2  0
 22 23  1  0
 22 24  1  0
 24 25  2  0
 25 26  1  0
 26 27  2  0
 27 28  1  0
 20 29  1  0
 29 30  2  0
 19 31  1  0
 31 32  2  0
 31 33  1  0
 33 34  1  0
 34 35  2  0
  5 36  1  0
 36 37  1  0
 37  2  1  0
 30  9  1  0
 16 10  1  0
 30 17  1  0
 34 18  1  0
 27 21  1  0
M  END
>  <Compound_ID>  (22) 
CHEMBL452078

>  <Active>  (22) 
1

>  <Smiles>  (22) 
CN1CCN(CCCn2c3ccc(O)cc3c3c4c(c(-c5c(Cl)cccc5Cl)cc32)C(=O)NC4=O)CC1

>  <canonical_smi>  (22) 
CN1CCN(CCCn2c3ccc(O)cc3c3c4c(c(-c5c(Cl)cccc5Cl)cc32)C(=O)NC4=O)CC1

>  <Set>  (22) 
G1 active

>  <Set_type>  (22) 
G1

>  <MW>  (22) 
537.45

>  <HBD>  (22) 
2

>  <HBA>  (22) 
5

>  <NRB>  (22) 
5

>  <NR>  (22) 
6

>  <NAR>  (22) 
4

>  <PSA>  (22) 
77.81

>  <Standard Type>  (22) 
nan

>  <Standard Relation>  (22) 
nan

>  <Standard Units>  (22) 
nan

>  <Standard Value>  (22) 
nan

>  <Assay ChEMBL ID>  (22) 
nan

>  <Assay Description>  (22) 
nan

>  <BAO Label>  (22) 
nan

$$$$

     RDKit          2D

 36 41  0  0  0  0  0  0  0  0999 V2000
    4.8180   -6.5097    0.0000 O   0  0  0  0  0  0  0  0  0  0  0  0
    4.2079   -5.1394    0.0000 C   0  0  0  0  0  0  0  0  0  0  0  0
    4.9579   -3.8403    0.0000 N   0  0  0  0  0  0  0  0  0  0  0  0
    3.9542   -2.7256    0.0000 C   0  0  0  0  0  0  0  0  0  0  0  0
    4.2660   -1.2584    0.0000 O   0  0  0  0  0  0  0  0  0  0  0  0
    2.5838   -3.3357    0.0000 C   0  0  0  0  0  0  0  0  0  0  0  0
    2.7406   -4.8275    0.0000 C   0  0  0  0  0  0  0  0  0  0  0  0
    1.5271   -5.7092    0.0000 C   0  0  0  0  0  0  0  0  0  0  0  0
    1.6839   -7.2010    0.0000 C   0  0  0  0  0  0  0  0  0  0  0  0
    3.0542   -7.8111    0.0000 C   0  0  0  0  0  0  0  0  0  0  0  0
    3.2110   -9.3029    0.0000 C   0  0  0  0  0  0  0  0  0  0  0  0
    1.9975  -10.1845    0.0000 C   0  0  0  0  0  0  0  0  0  0  0  0
    0.6272   -9.5744    0.0000 C   0  0  0  0  0  0  0  0  0  0  0  0
    0.4704   -8.0826    0.0000 C   0  0  0  0  0  0  0  0  0  0  0  0
   -0.8999   -7.4725    0.0000 Cl  0  0  0  0  0  0  0  0  0  0  0  0
    0.1568   -5.0991    0.0000 C   0  0  0  0  0  0  0  0  0  0  0  0
   -0.0000   -3.6073    0.0000 C   0  0  0  0  0  0  0  0  0  0  0  0
    1.2135   -2.7256    0.0000 C   0  0  0  0  0  0  0  0  0  0  0  0
    0.7500   -1.2990    0.0000 C   0  0  0  0  0  0  0  0  0  0  0  0
    1.5000    0.0000    0.0000 C   0  0  0  0  0  0  0  0  0  0  0  0
    0.7500    1.2990    0.0000 C   0  0  0  0  0  0  0  0  0  0  0  0
    1.5000    2.5981    0.0000 O   0  0  0  0  0  0  0  0  0  0  0  0
   -0.7500    1.2990    0.0000 C   0  0  0  0  0  0  0  0  0  0  0  0
   -1.5000    0.0000    0.0000 C   0  0  0  0  0  0  0  0  0  0  0  0
   -0.7500   -1.2990    0.0000 C   0  0  0  0  0  0  0  0  0  0  0  0
   -1.2135   -2.7256    0.0000 N   0  0  0  0  0  0  0  0  0  0  0  0
   -2.6401   -3.1891    0.0000 C   0  0  0  0  0  0  0  0  0  0  0  0
   -3.7548   -2.1855    0.0000 C   0  0  0  0  0  0  0  0  0  0  0  0
   -5.1814   -2.6490    0.0000 C   0  0  0  0  0  0  0  0  0  0  0  0
   -5.4933   -4.1162    0.0000 O   0  0  0  0  0  0  0  0  0  0  0  0
   -6.2961   -1.6453    0.0000 N   0  0  0  0  0  0  0  0  0  0  0  0
   -5.9843   -0.1781    0.0000 C   0  0  0  0  0  0  0  0  0  0  0  0
   -7.0990    0.8256    0.0000 C   0  0  0  0  0  0  0  0  0  0  0  0
   -8.5256    0.3621    0.0000 O   0  0  0  0  0  0  0  0  0  0  0  0
   -8.8374   -1.1051    0.0000 C   0  0  0  0  0  0  0  0  0  0  0  0
   -7.7227   -2.1088    0.0000 C   0  0  0  0  0  0  0  0  0  0  0  0
  1  2  2  0
  2  3  1  0
  3  4  1  0
  4  5  2  0
  4  6  1  0
  6  7  2  0
  7  8  1  0
  8  9  1  0
  9 10  2  0
 10 11  1  0
 11 12  2  0
 12 13  1  0
 13 14  2  0
 14 15  1  0
  8 16  2  0
 16 17  1  0
 17 18  2  0
 18 19  1  0
 19 20  2  0
 20 21  1  0
 21 22  1  0
 21 23  2  0
 23 24  1  0
 24 25  2  0
 25 26  1  0
 26 27  1  0
 27 28  1  0
 28 29  1  0
 29 30  2  0
 29 31  1  0
 31 32  1  0
 32 33  1  0
 33 34  1  0
 34 35  1  0
 35 36  1  0
  7  2  1  0
 14  9  1  0
 26 17  1  0
 36 31  1  0
 18  6  1  0
 25 19  1  0
M  END
>  <Compound_ID>  (23) 
CHEMBL486100

>  <Active>  (23) 
1

>  <Smiles>  (23) 
O=C1NC(=O)c2c1c(-c1ccccc1Cl)cc1c2c2cc(O)ccc2n1CCC(=O)N1CCOCC1

>  <canonical_smi>  (23) 
O=C1NC(=O)c2c1c(-c1ccccc1Cl)cc1c2c2cc(O)ccc2n1CCC(=O)N1CCOCC1

>  <Set>  (23) 
G1 active

>  <Set_type>  (23) 
G1

>  <MW>  (23) 
503.94

>  <HBD>  (23) 
2

>  <HBA>  (23) 
5

>  <NRB>  (23) 
4

>  <NR>  (23) 
6

>  <NAR>  (23) 
4

>  <PSA>  (23) 
100.87

>  <Standard Type>  (23) 
nan

>  <Standard Relation>  (23) 
nan

>  <Standard Units>  (23) 
nan

>  <Standard Value>  (23) 
nan

>  <Assay ChEMBL ID>  (23) 
nan

>  <Assay Description>  (23) 
nan

>  <BAO Label>  (23) 
nan

$$$$

     RDKit          2D

 37 42  0  0  0  0  0  0  0  0999 V2000
    4.9032   -6.2965    0.0000 O   0  0  0  0  0  0  0  0  0  0  0  0
    4.2079   -5.1394    0.0000 C   0  0  0  0  0  0  0  0  0  0  0  0
    4.9579   -3.8403    0.0000 N   0  0  0  0  0  0  0  0  0  0  0  0
    3.9542   -2.7256    0.0000 C   0  0  0  0  0  0  0  0  0  0  0  0
    4.2660   -1.2584    0.0000 O   0  0  0  0  0  0  0  0  0  0  0  0
    2.5838   -3.3357    0.0000 C   0  0  0  0  0  0  0  0  0  0  0  0
    2.7406   -4.8275    0.0000 C   0  0  0  0  0  0  0  0  0  0  0  0
    1.5271   -5.7092    0.0000 C   0  0  0  0  0  0  0  0  0  0  0  0
    1.6839   -7.2010    0.0000 C   0  0  0  0  0  0  0  0  0  0  0  0
    3.0542   -7.8111    0.0000 C   0  0  0  0  0  0  0  0  0  0  0  0
    4.2350   -7.1566    0.0000 Cl  0  0  0  0  0  0  0  0  0  0  0  0
    3.2110   -9.3029    0.0000 C   0  0  0  0  0  0  0  0  0  0  0  0
    1.9975  -10.1845    0.0000 C   0  0  0  0  0  0  0  0  0  0  0  0
    0.6272   -9.5744    0.0000 C   0  0  0  0  0  0  0  0  0  0  0  0
    0.4704   -8.0826    0.0000 C   0  0  0  0  0  0  0  0  0  0  0  0
   -0.8999   -7.4725    0.0000 Cl  0  0  0  0  0  0  0  0  0  0  0  0
    0.1568   -5.0991    0.0000 C   0  0  0  0  0  0  0  0  0  0  0  0
   -0.0000   -3.6073    0.0000 C   0  0  0  0  0  0  0  0  0  0  0  0
    1.2135   -2.7256    0.0000 C   0  0  0  0  0  0  0  0  0  0  0  0
    0.7500   -1.2990    0.0000 C   0  0  0  0  0  0  0  0  0  0  0  0
    1.5000    0.0000    0.0000 C   0  0  0  0  0  0  0  0  0  0  0  0
    0.7500    1.2990    0.0000 C   0  0  0  0  0  0  0  0  0  0  0  0
    1.5000    2.5981    0.0000 O   0  0  0  0  0  0  0  0  0  0  0  0
   -0.7500    1.2990    0.0000 C   0  0  0  0  0  0  0  0  0  0  0  0
   -1.5000    0.0000    0.0000 C   0  0  0  0  0  0  0  0  0  0  0  0
   -0.7500   -1.2990    0.0000 C   0  0  0  0  0  0  0  0  0  0  0  0
   -1.2135   -2.7256    0.0000 N   0  0  0  0  0  0  0  0  0  0  0  0
   -2.6401   -3.1891    0.0000 C   0  0  0  0  0  0  0  0  0  0  0  0
   -3.7548   -2.1855    0.0000 C   0  0  0  0  0  0  0  0  0  0  0  0
   -5.1814   -2.6490    0.0000 C   0  0  0  0  0  0  0  0  0  0  0  0
   -6.2961   -1.6453    0.0000 N   0  0  0  0  0  0  0  0  0  0  0  0
   -7.7227   -2.1088    0.0000 C   0  0  0  0  0  0  0  0  0  0  0  0
   -8.8374   -1.1051    0.0000 C   0  0  0  0  0  0  0  0  0  0  0  0
  -10.2640   -1.5686    0.0000 C   0  0  0  0  0  0  0  0  0  0  0  0
  -10.5759   -3.0359    0.0000 C   0  0  0  0  0  0  0  0  0  0  0  0
   -9.4612   -4.0396    0.0000 C   0  0  0  0  0  0  0  0  0  0  0  0
   -8.0346   -3.5760    0.0000 C   0  0  0  0  0  0  0  0  0  0  0  0
  1  2  2  0
  2  3  1  0
  3  4  1  0
  4  5  2  0
  4  6  1  0
  6  7  2  0
  7  8  1  0
  8  9  1  0
  9 10  2  0
 10 11  1  0
 10 12  1  0
 12 13  2  0
 13 14  1  0
 14 15  2  0
 15 16  1  0
  8 17  2  0
 17 18  1  0
 18 19  2  0
 19 20  1  0
 20 21  2  0
 21 22  1  0
 22 23  1  0
 22 24  2  0
 24 25  1  0
 25 26  2  0
 26 27  1  0
 27 28  1  0
 28 29  1  0
 29 30  1  0
 30 31  1  0
 31 32  1  0
 32 33  2  0
 33 34  1  0
 34 35  2  0
 35 36  1  0
 36 37  2  0
  7  2  1  0
 15  9  1  0
 27 18  1  0
 37 32  1  0
 19  6  1  0
 26 20  1  0
M  END
>  <Compound_ID>  (24) 
CHEMBL461134

>  <Active>  (24) 
1

>  <Smiles>  (24) 
O=C1NC(=O)c2c1c(-c1c(Cl)cccc1Cl)cc1c2c2cc(O)ccc2n1CCCNc1ccccc1

>  <canonical_smi>  (24) 
O=C1NC(=O)c2c1c(-c1c(Cl)cccc1Cl)cc1c2c2cc(O)ccc2n1CCCNc1ccccc1

>  <Set>  (24) 
G1 active

>  <Set_type>  (24) 
G1

>  <MW>  (24) 
530.41

>  <HBD>  (24) 
3

>  <HBA>  (24) 
4

>  <NRB>  (24) 
6

>  <NR>  (24) 
6

>  <NAR>  (24) 
5

>  <PSA>  (24) 
83.36

>  <Standard Type>  (24) 
nan

>  <Standard Relation>  (24) 
nan

>  <Standard Units>  (24) 
nan

>  <Standard Value>  (24) 
nan

>  <Assay ChEMBL ID>  (24) 
nan

>  <Assay Description>  (24) 
nan

>  <BAO Label>  (24) 
nan

$$$$

     RDKit          2D

 35 39  0  0  0  0  0  0  0  0999 V2000
   -3.0000   -2.5981    0.0000 C   0  0  0  0  0  0  0  0  0  0  0  0
   -1.5000   -2.5981    0.0000 N   0  0  0  0  0  0  0  0  0  0  0  0
   -0.7500   -3.8971    0.0000 C   0  0  0  0  0  0  0  0  0  0  0  0
   -1.5000   -5.1962    0.0000 O   0  0  0  0  0  0  0  0  0  0  0  0
    0.7500   -3.8971    0.0000 C   0  0  0  0  0  0  0  0  0  0  0  0
    1.5000   -5.1962    0.0000 C   0  0  0  0  0  0  0  0  0  0  0  0
    0.7500   -6.4952    0.0000 C   0  0  0  0  0  0  0  0  0  0  0  0
   -0.7500   -6.4952    0.0000 Cl  0  0  0  0  0  0  0  0  0  0  0  0
    1.5000   -7.7942    0.0000 C   0  0  0  0  0  0  0  0  0  0  0  0
    3.0000   -7.7942    0.0000 C   0  0  0  0  0  0  0  0  0  0  0  0
    3.7500   -6.4952    0.0000 C   0  0  0  0  0  0  0  0  0  0  0  0
    3.0000   -5.1962    0.0000 C   0  0  0  0  0  0  0  0  0  0  0  0
    3.7500   -3.8971    0.0000 Cl  0  0  0  0  0  0  0  0  0  0  0  0
    1.5000   -2.5981    0.0000 C   0  0  0  0  0  0  0  0  0  0  0  0
    0.7500   -1.2990    0.0000 C   0  0  0  0  0  0  0  0  0  0  0  0
    1.5000    0.0000    0.0000 C   0  0  0  0  0  0  0  0  0  0  0  0
    0.7500    1.2990    0.0000 N   0  0  0  0  0  0  0  0  0  0  0  0
   -0.7500    1.2990    0.0000 C   0  0  0  0  0  0  0  0  0  0  0  0
   -1.5000    2.5981    0.0000 N   0  0  0  0  0  0  0  0  0  0  0  0
   -0.7500    3.8971    0.0000 C   0  0  0  0  0  0  0  0  0  0  0  0
    0.7500    3.8971    0.0000 C   0  0  0  0  0  0  0  0  0  0  0  0
    1.5000    5.1962    0.0000 C   0  0  0  0  0  0  0  0  0  0  0  0
    0.7500    6.4952    0.0000 C   0  0  0  0  0  0  0  0  0  0  0  0
    1.5000    7.7942    0.0000 C   0  0  0  0  0  0  0  0  0  0  0  0
    3.0000    7.7942    0.0000 C   0  0  0  0  0  0  0  0  0  0  0  0
    3.7500    9.0933    0.0000 C   0  0  0  0  0  0  0  0  0  0  0  0
    5.2500    9.0933    0.0000 C   0  0  0  0  0  0  0  0  0  0  0  0
    6.1317   10.3068    0.0000 N   0  0  0  0  0  0  0  0  0  0  0  0
    7.5583    9.8433    0.0000 N   0  0  0  0  0  0  0  0  0  0  0  0
    7.5583    8.3433    0.0000 N   0  0  0  0  0  0  0  0  0  0  0  0
    6.1317    7.8797    0.0000 N   0  0  0  0  0  0  0  0  0  0  0  0
   -0.7500    6.4952    0.0000 C   0  0  0  0  0  0  0  0  0  0  0  0
   -1.5000    5.1962    0.0000 C   0  0  0  0  0  0  0  0  0  0  0  0
   -1.5000    0.0000    0.0000 N   0  0  0  0  0  0  0  0  0  0  0  0
   -0.7500   -1.2990    0.0000 C   0  0  0  0  0  0  0  0  0  0  0  0
  1  2  1  0
  2  3  1  0
  3  4  2  0
  3  5  1  0
  5  6  1  0
  6  7  2  0
  7  8  1  0
  7  9  1  0
  9 10  2  0
 10 11  1  0
 11 12  2  0
 12 13  1  0
  5 14  2  0
 14 15  1  0
 15 16  2  0
 16 17  1  0
 17 18  2  0
 18 19  1  0
 19 20  1  0
 20 21  2  0
 21 22  1  0
 22 23  2  0
 23 24  1  0
 24 25  1  0
 25 26  1  0
 26 27  1  0
 27 28  1  0
 28 29  2  0
 29 30  1  0
 30 31  2  0
 23 32  1  0
 32 33  2  0
 18 34  1  0
 34 35  2  0
 35  2  1  0
 12  6  1  0
 35 15  1  0
 33 20  1  0
 31 27  1  0
M  END
>  <Compound_ID>  (25) 
CHEMBL178510

>  <Active>  (25) 
1

>  <Smiles>  (25) 
Cn1c(=O)c(-c2c(Cl)cccc2Cl)cc2cnc(Nc3ccc(CCCC4N=NN=N4)cc3)nc21

>  <canonical_smi>  (25) 
Cn1c(=O)c(-c2c(Cl)cccc2Cl)cc2cnc(Nc3ccc(CCCC4N=NN=N4)cc3)nc21

>  <Set>  (25) 
G1 active

>  <Set_type>  (25) 
G1

>  <MW>  (25) 
507.39

>  <HBD>  (25) 
1

>  <HBA>  (25) 
4

>  <NRB>  (25) 
7

>  <NR>  (25) 
5

>  <NAR>  (25) 
4

>  <PSA>  (25) 
109.25

>  <Standard Type>  (25) 
nan

>  <Standard Relation>  (25) 
nan

>  <Standard Units>  (25) 
nan

>  <Standard Value>  (25) 
nan

>  <Assay ChEMBL ID>  (25) 
nan

>  <Assay Description>  (25) 
nan

>  <BAO Label>  (25) 
nan

$$$$

     RDKit          2D

 28 31  0  0  0  0  0  0  0  0999 V2000
   -3.0000   -2.5981    0.0000 C   0  0  0  0  0  0  0  0  0  0  0  0
   -1.5000   -2.5981    0.0000 N   0  0  0  0  0  0  0  0  0  0  0  0
   -0.7500   -3.8971    0.0000 C   0  0  0  0  0  0  0  0  0  0  0  0
   -1.5000   -5.1962    0.0000 O   0  0  0  0  0  0  0  0  0  0  0  0
    0.7500   -3.8971    0.0000 C   0  0  0  0  0  0  0  0  0  0  0  0
    1.5000   -5.1962    0.0000 C   0  0  0  0  0  0  0  0  0  0  0  0
    0.7500   -6.4952    0.0000 C   0  0  0  0  0  0  0  0  0  0  0  0
   -0.7500   -6.4952    0.0000 Cl  0  0  0  0  0  0  0  0  0  0  0  0
    1.5000   -7.7942    0.0000 C   0  0  0  0  0  0  0  0  0  0  0  0
    3.0000   -7.7942    0.0000 C   0  0  0  0  0  0  0  0  0  0  0  0
    3.7500   -6.4952    0.0000 C   0  0  0  0  0  0  0  0  0  0  0  0
    5.2500   -6.4952    0.0000 O   0  0  0  0  0  0  0  0  0  0  0  0
    3.0000   -5.1962    0.0000 C   0  0  0  0  0  0  0  0  0  0  0  0
    3.7500   -3.8971    0.0000 Cl  0  0  0  0  0  0  0  0  0  0  0  0
    1.5000   -2.5981    0.0000 C   0  0  0  0  0  0  0  0  0  0  0  0
    0.7500   -1.2990    0.0000 C   0  0  0  0  0  0  0  0  0  0  0  0
    1.5000    0.0000    0.0000 C   0  0  0  0  0  0  0  0  0  0  0  0
    0.7500    1.2990    0.0000 N   0  0  0  0  0  0  0  0  0  0  0  0
   -0.7500    1.2990    0.0000 C   0  0  0  0  0  0  0  0  0  0  0  0
   -1.5000    2.5981    0.0000 N   0  0  0  0  0  0  0  0  0  0  0  0
   -0.7500    3.8971    0.0000 C   0  0  0  0  0  0  0  0  0  0  0  0
    0.7500    3.8971    0.0000 C   0  0  0  0  0  0  0  0  0  0  0  0
    1.5000    5.1962    0.0000 C   0  0  0  0  0  0  0  0  0  0  0  0
    0.7500    6.4952    0.0000 C   0  0  0  0  0  0  0  0  0  0  0  0
   -0.7500    6.4952    0.0000 C   0  0  0  0  0  0  0  0  0  0  0  0
   -1.5000    5.1962    0.0000 C   0  0  0  0  0  0  0  0  0  0  0  0
   -1.5000    0.0000    0.0000 N   0  0  0  0  0  0  0  0  0  0  0  0
   -0.7500   -1.2990    0.0000 C   0  0  0  0  0  0  0  0  0  0  0  0
  1  2  1  0
  2  3  1  0
  3  4  2  0
  3  5  1  0
  5  6  1  0
  6  7  2  0
  7  8  1  0
  7  9  1  0
  9 10  2  0
 10 11  1  0
 11 12  1  0
 11 13  2  0
 13 14  1  0
  5 15  2  0
 15 16  1  0
 16 17  2  0
 17 18  1  0
 18 19  2  0
 19 20  1  0
 20 21  1  0
 21 22  2  0
 22 23  1  0
 23 24  2  0
 24 25  1  0
 25 26  2  0
 19 27  1  0
 27 28  2  0
 28  2  1  0
 13  6  1  0
 28 16  1  0
 26 21  1  0
M  END
>  <Compound_ID>  (26) 
CHEMBL181233

>  <Active>  (26) 
1

>  <Smiles>  (26) 
Cn1c(=O)c(-c2c(Cl)ccc(O)c2Cl)cc2cnc(Nc3ccccc3)nc21

>  <canonical_smi>  (26) 
Cn1c(=O)c(-c2c(Cl)ccc(O)c2Cl)cc2cnc(Nc3ccccc3)nc21

>  <Set>  (26) 
G1 active

>  <Set_type>  (26) 
G1

>  <MW>  (26) 
413.26

>  <HBD>  (26) 
2

>  <HBA>  (26) 
5

>  <NRB>  (26) 
3

>  <NR>  (26) 
4

>  <NAR>  (26) 
4

>  <PSA>  (26) 
80.04

>  <Standard Type>  (26) 
nan

>  <Standard Relation>  (26) 
nan

>  <Standard Units>  (26) 
nan

>  <Standard Value>  (26) 
nan

>  <Assay ChEMBL ID>  (26) 
nan

>  <Assay Description>  (26) 
nan

>  <BAO Label>  (26) 
nan

$$$$

     RDKit          2D

 36 41  0  0  0  0  0  0  0  0999 V2000
    2.6401   -3.1891    0.0000 C   0  0  0  0  0  0  0  0  0  0  0  0
    1.2135   -2.7256    0.0000 N   0  0  0  0  0  0  0  0  0  0  0  0
    0.7500   -1.2990    0.0000 C   0  0  0  0  0  0  0  0  0  0  0  0
    1.5000    0.0000    0.0000 C   0  0  0  0  0  0  0  0  0  0  0  0
    0.7500    1.2990    0.0000 C   0  0  0  0  0  0  0  0  0  0  0  0
    1.5000    2.5981    0.0000 O   0  0  0  0  0  0  0  0  0  0  0  0
    3.0000    2.5981    0.0000 C   0  0  0  0  0  0  0  0  0  0  0  0
    3.7500    3.8971    0.0000 C   0  0  0  0  0  0  0  0  0  0  0  0
    5.2500    3.8971    0.0000 C   0  0  0  0  0  0  0  0  0  0  0  0
    6.0000    5.1962    0.0000 N   0  0  0  0  0  0  0  0  0  0  0  0
    5.3899    6.5665    0.0000 C   0  0  0  0  0  0  0  0  0  0  0  0
    6.5046    7.5702    0.0000 C   0  0  0  0  0  0  0  0  0  0  0  0
    7.8037    6.8202    0.0000 C   0  0  0  0  0  0  0  0  0  0  0  0
    7.4918    5.3529    0.0000 C   0  0  0  0  0  0  0  0  0  0  0  0
   -0.7500    1.2990    0.0000 C   0  0  0  0  0  0  0  0  0  0  0  0
   -1.5000    2.5981    0.0000 O   0  0  0  0  0  0  0  0  0  0  0  0
   -1.5000    0.0000    0.0000 C   0  0  0  0  0  0  0  0  0  0  0  0
   -0.7500   -1.2990    0.0000 C   0  0  0  0  0  0  0  0  0  0  0  0
   -1.2135   -2.7256    0.0000 C   0  0  0  0  0  0  0  0  0  0  0  0
   -2.5838   -3.3357    0.0000 C   0  0  0  0  0  0  0  0  0  0  0  0
   -2.7406   -4.8275    0.0000 C   0  0  0  0  0  0  0  0  0  0  0  0
   -1.5271   -5.7092    0.0000 C   0  0  0  0  0  0  0  0  0  0  0  0
   -1.6839   -7.2010    0.0000 C   0  0  0  0  0  0  0  0  0  0  0  0
   -3.0542   -7.8111    0.0000 C   0  0  0  0  0  0  0  0  0  0  0  0
   -3.2110   -9.3029    0.0000 C   0  0  0  0  0  0  0  0  0  0  0  0
   -1.9975  -10.1845    0.0000 C   0  0  0  0  0  0  0  0  0  0  0  0
   -0.6272   -9.5744    0.0000 C   0  0  0  0  0  0  0  0  0  0  0  0
   -0.4704   -8.0826    0.0000 C   0  0  0  0  0  0  0  0  0  0  0  0
    0.8999   -7.4725    0.0000 Cl  0  0  0  0  0  0  0  0  0  0  0  0
   -0.1568   -5.0991    0.0000 C   0  0  0  0  0  0  0  0  0  0  0  0
   -0.0000   -3.6073    0.0000 C   0  0  0  0  0  0  0  0  0  0  0  0
   -4.2079   -5.1394    0.0000 C   0  0  0  0  0  0  0  0  0  0  0  0
   -4.8180   -6.5097    0.0000 O   0  0  0  0  0  0  0  0  0  0  0  0
   -4.9579   -3.8403    0.0000 N   0  0  0  0  0  0  0  0  0  0  0  0
   -3.9542   -2.7256    0.0000 C   0  0  0  0  0  0  0  0  0  0  0  0
   -4.2660   -1.2584    0.0000 O   0  0  0  0  0  0  0  0  0  0  0  0
  1  2  1  0
  2  3  1  0
  3  4  2  0
  4  5  1  0
  5  6  1  0
  6  7  1  0
  7  8  1  0
  8  9  1  0
  9 10  1  0
 10 11  1  0
 11 12  2  0
 12 13  1  0
 13 14  2  0
  5 15  2  0
 15 16  1  0
 15 17  1  0
 17 18  2  0
 18 19  1  0
 19 20  2  0
 20 21  1  0
 21 22  2  0
 22 23  1  0
 23 24  2  0
 24 25  1  0
 25 26  2  0
 26 27  1  0
 27 28  2  0
 28 29  1  0
 22 30  1  0
 30 31  2  0
 21 32  1  0
 32 33  2  0
 32 34  1  0
 34 35  1  0
 35 36  2  0
 31  2  1  0
 18  3  1  0
 31 19  1  0
 14 10  1  0
 35 20  1  0
 28 23  1  0
M  END
>  <Compound_ID>  (27) 
CHEMBL472687

>  <Active>  (27) 
1

>  <Smiles>  (27) 
Cn1c2cc(OCCCn3cccc3)c(O)cc2c2c3c(c(-c4ccccc4Cl)cc21)C(=O)NC3=O

>  <canonical_smi>  (27) 
Cn1c2cc(OCCCn3cccc3)c(O)cc2c2c3c(c(-c4ccccc4Cl)cc21)C(=O)NC3=O

>  <Set>  (27) 
G1 active

>  <Set_type>  (27) 
G1

>  <MW>  (27) 
499.95

>  <HBD>  (27) 
2

>  <HBA>  (27) 
4

>  <NRB>  (27) 
6

>  <NR>  (27) 
6

>  <NAR>  (27) 
5

>  <PSA>  (27) 
85.49

>  <Standard Type>  (27) 
nan

>  <Standard Relation>  (27) 
nan

>  <Standard Units>  (27) 
nan

>  <Standard Value>  (27) 
nan

>  <Assay ChEMBL ID>  (27) 
nan

>  <Assay Description>  (27) 
nan

>  <BAO Label>  (27) 
nan

$$$$

     RDKit          2D

 25 29  0  0  0  0  0  0  0  0999 V2000
   -4.8180   -6.5097    0.0000 O   0  0  0  0  0  0  0  0  0  0  0  0
   -4.2079   -5.1394    0.0000 C   0  0  0  0  0  0  0  0  0  0  0  0
   -4.9579   -3.8403    0.0000 N   0  0  0  0  0  0  0  0  0  0  0  0
   -3.9542   -2.7256    0.0000 C   0  0  0  0  0  0  0  0  0  0  0  0
   -4.2660   -1.2584    0.0000 O   0  0  0  0  0  0  0  0  0  0  0  0
   -2.5838   -3.3357    0.0000 C   0  0  0  0  0  0  0  0  0  0  0  0
   -2.7406   -4.8275    0.0000 C   0  0  0  0  0  0  0  0  0  0  0  0
   -1.5271   -5.7092    0.0000 C   0  0  0  0  0  0  0  0  0  0  0  0
   -1.6839   -7.2010    0.0000 C   0  0  0  0  0  0  0  0  0  0  0  0
   -3.0542   -7.8111    0.0000 C   0  0  0  0  0  0  0  0  0  0  0  0
   -3.2110   -9.3029    0.0000 C   0  0  0  0  0  0  0  0  0  0  0  0
   -1.9975  -10.1845    0.0000 C   0  0  0  0  0  0  0  0  0  0  0  0
   -0.6272   -9.5744    0.0000 C   0  0  0  0  0  0  0  0  0  0  0  0
   -0.4704   -8.0826    0.0000 C   0  0  0  0  0  0  0  0  0  0  0  0
   -0.1568   -5.0991    0.0000 C   0  0  0  0  0  0  0  0  0  0  0  0
   -0.0000   -3.6073    0.0000 C   0  0  0  0  0  0  0  0  0  0  0  0
    1.2135   -2.7256    0.0000 S   0  0  0  0  0  0  0  0  0  0  0  0
    0.7500   -1.2990    0.0000 C   0  0  0  0  0  0  0  0  0  0  0  0
    1.5000    0.0000    0.0000 C   0  0  0  0  0  0  0  0  0  0  0  0
    0.7500    1.2990    0.0000 C   0  0  0  0  0  0  0  0  0  0  0  0
   -0.7500    1.2990    0.0000 C   0  0  0  0  0  0  0  0  0  0  0  0
   -1.5000    2.5981    0.0000 O   0  0  0  0  0  0  0  0  0  0  0  0
   -1.5000    0.0000    0.0000 C   0  0  0  0  0  0  0  0  0  0  0  0
   -0.7500   -1.2990    0.0000 C   0  0  0  0  0  0  0  0  0  0  0  0
   -1.2135   -2.7256    0.0000 C   0  0  0  0  0  0  0  0  0  0  0  0
  1  2  2  0
  2  3  1  0
  3  4  1  0
  4  5  2  0
  4  6  1  0
  6  7  2  0
  7  8  1  0
  8  9  1  0
  9 10  2  0
 10 11  1  0
 11 12  2  0
 12 13  1  0
 13 14  2  0
  8 15  2  0
 15 16  1  0
 16 17  1  0
 17 18  1  0
 18 19  2  0
 19 20  1  0
 20 21  2  0
 21 22  1  0
 21 23  1  0
 23 24  2  0
 24 25  1  0
  7  2  1  0
 14  9  1  0
 25 16  2  0
 25  6  1  0
 24 18  1  0
M  END
>  <Compound_ID>  (28) 
CHEMBL378756

>  <Active>  (28) 
1

>  <Smiles>  (28) 
O=C1NC(=O)c2c1c(-c1ccccc1)cc1sc3ccc(O)cc3c21

>  <canonical_smi>  (28) 
O=C1NC(=O)c2c1c(-c1ccccc1)cc1sc3ccc(O)cc3c21

>  <Set>  (28) 
G1 active

>  <Set_type>  (28) 
G1

>  <MW>  (28) 
345.38

>  <HBD>  (28) 
2

>  <HBA>  (28) 
3

>  <NRB>  (28) 
1

>  <NR>  (28) 
5

>  <NAR>  (28) 
4

>  <PSA>  (28) 
66.4

>  <Standard Type>  (28) 
nan

>  <Standard Relation>  (28) 
nan

>  <Standard Units>  (28) 
nan

>  <Standard Value>  (28) 
nan

>  <Assay ChEMBL ID>  (28) 
nan

>  <Assay Description>  (28) 
nan

>  <BAO Label>  (28) 
nan

$$$$

     RDKit          2D

 36 39  0  0  0  0  0  0  0  0999 V2000
   -7.5000  -10.3923    0.0000 C   0  0  0  0  0  0  0  0  0  0  0  0
   -6.0000  -10.3923    0.0000 C   0  0  0  0  0  0  0  0  0  0  0  0
   -5.2500   -9.0933    0.0000 N   0  0  0  0  0  0  0  0  0  0  0  0
   -6.0000   -7.7942    0.0000 C   0  0  0  0  0  0  0  0  0  0  0  0
   -7.5000   -7.7942    0.0000 C   0  0  0  0  0  0  0  0  0  0  0  0
   -3.7500   -9.0933    0.0000 C   0  0  0  0  0  0  0  0  0  0  0  0
   -3.0000   -7.7942    0.0000 C   0  0  0  0  0  0  0  0  0  0  0  0
   -1.5000   -7.7942    0.0000 O   0  0  0  0  0  0  0  0  0  0  0  0
   -0.7500   -6.4952    0.0000 C   0  0  0  0  0  0  0  0  0  0  0  0
   -1.5000   -5.1962    0.0000 C   0  0  0  0  0  0  0  0  0  0  0  0
   -0.7500   -3.8971    0.0000 C   0  0  0  0  0  0  0  0  0  0  0  0
    0.7500   -3.8971    0.0000 C   0  0  0  0  0  0  0  0  0  0  0  0
    1.5000   -2.5981    0.0000 N   0  0  0  0  0  0  0  0  0  0  0  0
    0.7500   -1.2990    0.0000 C   0  0  0  0  0  0  0  0  0  0  0  0
    1.5000    0.0000    0.0000 N   0  0  0  0  0  0  0  0  0  0  0  0
    0.7500    1.2990    0.0000 C   0  0  0  0  0  0  0  0  0  0  0  0
   -0.7500    1.2990    0.0000 C   0  0  0  0  0  0  0  0  0  0  0  0
   -1.5000    2.5981    0.0000 C   0  0  0  0  0  0  0  0  0  0  0  0
   -3.0000    2.5981    0.0000 C   0  0  0  0  0  0  0  0  0  0  0  0
   -3.7500    3.8971    0.0000 C   0  0  0  0  0  0  0  0  0  0  0  0
   -3.0000    5.1962    0.0000 C   0  0  0  0  0  0  0  0  0  0  0  0
   -1.5000    5.1962    0.0000 Cl  0  0  0  0  0  0  0  0  0  0  0  0
   -3.7500    6.4952    0.0000 C   0  0  0  0  0  0  0  0  0  0  0  0
   -5.2500    6.4952    0.0000 C   0  0  0  0  0  0  0  0  0  0  0  0
   -6.0000    7.7942    0.0000 O   0  0  0  0  0  0  0  0  0  0  0  0
   -6.0000    5.1962    0.0000 C   0  0  0  0  0  0  0  0  0  0  0  0
   -5.2500    3.8971    0.0000 C   0  0  0  0  0  0  0  0  0  0  0  0
   -6.0000    2.5981    0.0000 Cl  0  0  0  0  0  0  0  0  0  0  0  0
   -3.7500    1.2990    0.0000 C   0  0  0  0  0  0  0  0  0  0  0  0
   -5.2500    1.2990    0.0000 O   0  0  0  0  0  0  0  0  0  0  0  0
   -3.0000    0.0000    0.0000 N   0  0  0  0  0  0  0  0  0  0  0  0
   -3.7500   -1.2990    0.0000 C   0  0  0  0  0  0  0  0  0  0  0  0
   -1.5000    0.0000    0.0000 C   0  0  0  0  0  0  0  0  0  0  0  0
   -0.7500   -1.2990    0.0000 N   0  0  0  0  0  0  0  0  0  0  0  0
    1.5000   -5.1962    0.0000 C   0  0  0  0  0  0  0  0  0  0  0  0
    0.7500   -6.4952    0.0000 C   0  0  0  0  0  0  0  0  0  0  0  0
  1  2  1  0
  2  3  1  0
  3  4  1  0
  4  5  1  0
  3  6  1  0
  6  7  1  0
  7  8  1  0
  8  9  1  0
  9 10  2  0
 10 11  1  0
 11 12  2  0
 12 13  1  0
 13 14  1  0
 14 15  2  0
 15 16  1  0
 16 17  2  0
 17 18  1  0
 18 19  2  0
 19 20  1  0
 20 21  2  0
 21 22  1  0
 21 23  1  0
 23 24  2  0
 24 25  1  0
 24 26  1  0
 26 27  2  0
 27 28  1  0
 19 29  1  0
 29 30  2  0
 29 31  1  0
 31 32  1  0
 31 33  1  0
 33 34  2  0
 12 35  1  0
 35 36  2  0
 36  9  1  0
 34 14  1  0
 33 17  1  0
 27 20  1  0
M  END
>  <Compound_ID>  (29) 
CHEMBL540206

>  <Active>  (29) 
1

>  <Smiles>  (29) 
CCN(CC)CCOc1ccc(Nc2ncc3cc(-c4c(Cl)cc(O)cc4Cl)c(=O)n(C)c3n2)cc1

>  <canonical_smi>  (29) 
CCN(CC)CCOc1ccc(Nc2ncc3cc(-c4c(Cl)cc(O)cc4Cl)c(=O)n(C)c3n2)cc1

>  <Set>  (29) 
G1 active

>  <Set_type>  (29) 
G1

>  <MW>  (29) 
528.44

>  <HBD>  (29) 
2

>  <HBA>  (29) 
7

>  <NRB>  (29) 
9

>  <NR>  (29) 
4

>  <NAR>  (29) 
4

>  <PSA>  (29) 
92.51

>  <Standard Type>  (29) 
nan

>  <Standard Relation>  (29) 
nan

>  <Standard Units>  (29) 
nan

>  <Standard Value>  (29) 
nan

>  <Assay ChEMBL ID>  (29) 
nan

>  <Assay Description>  (29) 
nan

>  <BAO Label>  (29) 
nan

$$$$

     RDKit          2D

 34 37  0  0  0  0  0  0  0  0999 V2000
   -3.0000   -2.5981    0.0000 C   0  0  0  0  0  0  0  0  0  0  0  0
   -1.5000   -2.5981    0.0000 N   0  0  0  0  0  0  0  0  0  0  0  0
   -0.7500   -3.8971    0.0000 C   0  0  0  0  0  0  0  0  0  0  0  0
   -1.5000   -5.1962    0.0000 O   0  0  0  0  0  0  0  0  0  0  0  0
    0.7500   -3.8971    0.0000 C   0  0  0  0  0  0  0  0  0  0  0  0
    1.5000   -5.1962    0.0000 C   0  0  0  0  0  0  0  0  0  0  0  0
    0.7500   -6.4952    0.0000 C   0  0  0  0  0  0  0  0  0  0  0  0
   -0.7500   -6.4952    0.0000 Cl  0  0  0  0  0  0  0  0  0  0  0  0
    1.5000   -7.7942    0.0000 C   0  0  0  0  0  0  0  0  0  0  0  0
    3.0000   -7.7942    0.0000 C   0  0  0  0  0  0  0  0  0  0  0  0
    3.7500   -6.4952    0.0000 C   0  0  0  0  0  0  0  0  0  0  0  0
    3.0000   -5.1962    0.0000 C   0  0  0  0  0  0  0  0  0  0  0  0
    3.7500   -3.8971    0.0000 Cl  0  0  0  0  0  0  0  0  0  0  0  0
    1.5000   -2.5981    0.0000 C   0  0  0  0  0  0  0  0  0  0  0  0
    0.7500   -1.2990    0.0000 C   0  0  0  0  0  0  0  0  0  0  0  0
    1.5000    0.0000    0.0000 C   0  0  0  0  0  0  0  0  0  0  0  0
    0.7500    1.2990    0.0000 N   0  0  0  0  0  0  0  0  0  0  0  0
   -0.7500    1.2990    0.0000 C   0  0  0  0  0  0  0  0  0  0  0  0
   -1.5000    2.5981    0.0000 N   0  0  0  0  0  0  0  0  0  0  0  0
   -0.7500    3.8971    0.0000 C   0  0  0  0  0  0  0  0  0  0  0  0
    0.7500    3.8971    0.0000 C   0  0  0  0  0  0  0  0  0  0  0  0
    1.5000    5.1962    0.0000 C   0  0  0  0  0  0  0  0  0  0  0  0
    0.7500    6.4952    0.0000 C   0  0  0  0  0  0  0  0  0  0  0  0
    1.5000    7.7942    0.0000 O   0  0  0  0  0  0  0  0  0  0  0  0
    3.0000    7.7942    0.0000 C   0  0  0  0  0  0  0  0  0  0  0  0
    3.7500    9.0933    0.0000 C   0  0  0  0  0  0  0  0  0  0  0  0
    5.2500    9.0933    0.0000 C   0  0  0  0  0  0  0  0  0  0  0  0
    6.0000   10.3923    0.0000 C   0  0  0  0  0  0  0  0  0  0  0  0
    5.2500   11.6913    0.0000 O   0  0  0  0  0  0  0  0  0  0  0  0
    7.5000   10.3923    0.0000 O   0  0  0  0  0  0  0  0  0  0  0  0
   -0.7500    6.4952    0.0000 C   0  0  0  0  0  0  0  0  0  0  0  0
   -1.5000    5.1962    0.0000 C   0  0  0  0  0  0  0  0  0  0  0  0
   -1.5000    0.0000    0.0000 N   0  0  0  0  0  0  0  0  0  0  0  0
   -0.7500   -1.2990    0.0000 C   0  0  0  0  0  0  0  0  0  0  0  0
  1  2  1  0
  2  3  1  0
  3  4  2  0
  3  5  1  0
  5  6  1  0
  6  7  2  0
  7  8  1  0
  7  9  1  0
  9 10  2  0
 10 11  1  0
 11 12  2  0
 12 13  1  0
  5 14  2  0
 14 15  1  0
 15 16  2  0
 16 17  1  0
 17 18  2  0
 18 19  1  0
 19 20  1  0
 20 21  2  0
 21 22  1  0
 22 23  2  0
 23 24  1  0
 24 25  1  0
 25 26  1  0
 26 27  1  0
 27 28  1  0
 28 29  2  0
 28 30  1  0
 23 31  1  0
 31 32  2  0
 18 33  1  0
 33 34  2  0
 34  2  1  0
 12  6  1  0
 34 15  1  0
 32 20  1  0
M  END
>  <Compound_ID>  (30) 
CHEMBL181285

>  <Active>  (30) 
1

>  <Smiles>  (30) 
Cn1c(=O)c(-c2c(Cl)cccc2Cl)cc2cnc(Nc3ccc(OCCCC(=O)O)cc3)nc21

>  <canonical_smi>  (30) 
Cn1c(=O)c(-c2c(Cl)cccc2Cl)cc2cnc(Nc3ccc(OCCCC(=O)O)cc3)nc21

>  <Set>  (30) 
G1 active

>  <Set_type>  (30) 
G1

>  <MW>  (30) 
499.35

>  <HBD>  (30) 
2

>  <HBA>  (30) 
7

>  <NRB>  (30) 
8

>  <NR>  (30) 
4

>  <NAR>  (30) 
4

>  <PSA>  (30) 
106.34

>  <Standard Type>  (30) 
nan

>  <Standard Relation>  (30) 
nan

>  <Standard Units>  (30) 
nan

>  <Standard Value>  (30) 
nan

>  <Assay ChEMBL ID>  (30) 
nan

>  <Assay Description>  (30) 
nan

>  <BAO Label>  (30) 
nan

$$$$

     RDKit          2D

 35 40  0  0  0  0  0  0  0  0999 V2000
    4.8180   -6.5097    0.0000 O   0  0  0  0  0  0  0  0  0  0  0  0
    4.2079   -5.1394    0.0000 C   0  0  0  0  0  0  0  0  0  0  0  0
    4.9579   -3.8403    0.0000 N   0  0  0  0  0  0  0  0  0  0  0  0
    3.9542   -2.7256    0.0000 C   0  0  0  0  0  0  0  0  0  0  0  0
    4.2660   -1.2584    0.0000 O   0  0  0  0  0  0  0  0  0  0  0  0
    2.5838   -3.3357    0.0000 C   0  0  0  0  0  0  0  0  0  0  0  0
    2.7406   -4.8275    0.0000 C   0  0  0  0  0  0  0  0  0  0  0  0
    1.5271   -5.7092    0.0000 C   0  0  0  0  0  0  0  0  0  0  0  0
    1.6839   -7.2010    0.0000 C   0  0  0  0  0  0  0  0  0  0  0  0
    3.0542   -7.8111    0.0000 C   0  0  0  0  0  0  0  0  0  0  0  0
    3.2110   -9.3029    0.0000 C   0  0  0  0  0  0  0  0  0  0  0  0
    1.9975  -10.1845    0.0000 C   0  0  0  0  0  0  0  0  0  0  0  0
    0.6272   -9.5744    0.0000 C   0  0  0  0  0  0  0  0  0  0  0  0
    0.4704   -8.0826    0.0000 C   0  0  0  0  0  0  0  0  0  0  0  0
   -0.8999   -7.4725    0.0000 Cl  0  0  0  0  0  0  0  0  0  0  0  0
    0.1568   -5.0991    0.0000 C   0  0  0  0  0  0  0  0  0  0  0  0
   -0.0000   -3.6073    0.0000 C   0  0  0  0  0  0  0  0  0  0  0  0
    1.2135   -2.7256    0.0000 C   0  0  0  0  0  0  0  0  0  0  0  0
    0.7500   -1.2990    0.0000 C   0  0  0  0  0  0  0  0  0  0  0  0
    1.5000    0.0000    0.0000 C   0  0  0  0  0  0  0  0  0  0  0  0
    0.7500    1.2990    0.0000 C   0  0  0  0  0  0  0  0  0  0  0  0
    1.5000    2.5981    0.0000 O   0  0  0  0  0  0  0  0  0  0  0  0
   -0.7500    1.2990    0.0000 C   0  0  0  0  0  0  0  0  0  0  0  0
   -1.5000    0.0000    0.0000 C   0  0  0  0  0  0  0  0  0  0  0  0
   -0.7500   -1.2990    0.0000 C   0  0  0  0  0  0  0  0  0  0  0  0
   -1.2135   -2.7256    0.0000 N   0  0  0  0  0  0  0  0  0  0  0  0
   -2.6401   -3.1891    0.0000 C   0  0  0  0  0  0  0  0  0  0  0  0
   -3.7548   -2.1855    0.0000 C   0  0  0  0  0  0  0  0  0  0  0  0
   -5.1814   -2.6490    0.0000 C   0  0  0  0  0  0  0  0  0  0  0  0
   -5.4933   -4.1162    0.0000 O   0  0  0  0  0  0  0  0  0  0  0  0
   -6.2961   -1.6453    0.0000 N   0  0  0  0  0  0  0  0  0  0  0  0
   -7.7634   -1.9571    0.0000 C   0  0  0  0  0  0  0  0  0  0  0  0
   -8.5134   -0.6581    0.0000 C   0  0  0  0  0  0  0  0  0  0  0  0
   -7.5097    0.4566    0.0000 N   0  0  0  0  0  0  0  0  0  0  0  0
   -6.1393   -0.1535    0.0000 C   0  0  0  0  0  0  0  0  0  0  0  0
  1  2  2  0
  2  3  1  0
  3  4  1  0
  4  5  2  0
  4  6  1  0
  6  7  2  0
  7  8  1  0
  8  9  1  0
  9 10  2  0
 10 11  1  0
 11 12  2  0
 12 13  1  0
 13 14  2  0
 14 15  1  0
  8 16  2  0
 16 17  1  0
 17 18  2  0
 18 19  1  0
 19 20  2  0
 20 21  1  0
 21 22  1  0
 21 23  2  0
 23 24  1  0
 24 25  2  0
 25 26  1  0
 26 27  1  0
 27 28  1  0
 28 29  1  0
 29 30  2  0
 29 31  1  0
 31 32  1  0
 32 33  2  0
 33 34  1  0
 34 35  2  0
  7  2  1  0
 14  9  1  0
 26 17  1  0
 35 31  1  0
 18  6  1  0
 25 19  1  0
M  END
>  <Compound_ID>  (31) 
CHEMBL520537

>  <Active>  (31) 
1

>  <Smiles>  (31) 
O=C1NC(=O)c2c1c(-c1ccccc1Cl)cc1c2c2cc(O)ccc2n1CCC(=O)n1ccnc1

>  <canonical_smi>  (31) 
O=C1NC(=O)c2c1c(-c1ccccc1Cl)cc1c2c2cc(O)ccc2n1CCC(=O)n1ccnc1

>  <Set>  (31) 
G1 active

>  <Set_type>  (31) 
G1

>  <MW>  (31) 
484.9

>  <HBD>  (31) 
2

>  <HBA>  (31) 
5

>  <NRB>  (31) 
4

>  <NR>  (31) 
6

>  <NAR>  (31) 
5

>  <PSA>  (31) 
106.22

>  <Standard Type>  (31) 
nan

>  <Standard Relation>  (31) 
nan

>  <Standard Units>  (31) 
nan

>  <Standard Value>  (31) 
nan

>  <Assay ChEMBL ID>  (31) 
nan

>  <Assay Description>  (31) 
nan

>  <BAO Label>  (31) 
nan

$$$$

     RDKit          2D

 29 33  0  0  0  0  0  0  0  0999 V2000
    4.8180   -6.5097    0.0000 O   0  0  0  0  0  0  0  0  0  0  0  0
    4.2079   -5.1394    0.0000 C   0  0  0  0  0  0  0  0  0  0  0  0
    4.9579   -3.8403    0.0000 N   0  0  0  0  0  0  0  0  0  0  0  0
    3.9542   -2.7256    0.0000 C   0  0  0  0  0  0  0  0  0  0  0  0
    4.2660   -1.2584    0.0000 O   0  0  0  0  0  0  0  0  0  0  0  0
    2.5838   -3.3357    0.0000 C   0  0  0  0  0  0  0  0  0  0  0  0
    2.7406   -4.8275    0.0000 C   0  0  0  0  0  0  0  0  0  0  0  0
    1.5271   -5.7092    0.0000 C   0  0  0  0  0  0  0  0  0  0  0  0
    0.1568   -5.0991    0.0000 C   0  0  0  0  0  0  0  0  0  0  0  0
   -0.0000   -3.6073    0.0000 C   0  0  0  0  0  0  0  0  0  0  0  0
    1.2135   -2.7256    0.0000 C   0  0  0  0  0  0  0  0  0  0  0  0
    0.7500   -1.2990    0.0000 C   0  0  0  0  0  0  0  0  0  0  0  0
    1.5000    0.0000    0.0000 C   0  0  0  0  0  0  0  0  0  0  0  0
    0.7500    1.2990    0.0000 C   0  0  0  0  0  0  0  0  0  0  0  0
    1.5000    2.5981    0.0000 O   0  0  0  0  0  0  0  0  0  0  0  0
   -0.7500    1.2990    0.0000 C   0  0  0  0  0  0  0  0  0  0  0  0
   -1.5000    0.0000    0.0000 C   0  0  0  0  0  0  0  0  0  0  0  0
   -0.7500   -1.2990    0.0000 C   0  0  0  0  0  0  0  0  0  0  0  0
   -1.2135   -2.7256    0.0000 N   0  0  0  0  0  0  0  0  0  0  0  0
   -2.6401   -3.1891    0.0000 C   0  0  0  0  0  0  0  0  0  0  0  0
   -3.7548   -2.1855    0.0000 C   0  0  0  0  0  0  0  0  0  0  0  0
   -5.1814   -2.6490    0.0000 C   0  0  0  0  0  0  0  0  0  0  0  0
   -6.2961   -1.6453    0.0000 N   0  0  0  0  0  0  0  0  0  0  0  0
   -7.7227   -2.1088    0.0000 C   0  0  0  0  0  0  0  0  0  0  0  0
   -8.8374   -1.1051    0.0000 C   0  0  0  0  0  0  0  0  0  0  0  0
  -10.2640   -1.5686    0.0000 C   0  0  0  0  0  0  0  0  0  0  0  0
  -10.5759   -3.0359    0.0000 C   0  0  0  0  0  0  0  0  0  0  0  0
   -9.4612   -4.0396    0.0000 C   0  0  0  0  0  0  0  0  0  0  0  0
   -8.0346   -3.5760    0.0000 C   0  0  0  0  0  0  0  0  0  0  0  0
  1  2  2  0
  2  3  1  0
  3  4  1  0
  4  5  2  0
  4  6  1  0
  6  7  2  0
  7  8  1  0
  8  9  2  0
  9 10  1  0
 10 11  2  0
 11 12  1  0
 12 13  2  0
 13 14  1  0
 14 15  1  0
 14 16  2  0
 16 17  1  0
 17 18  2  0
 18 19  1  0
 19 20  1  0
 20 21  1  0
 21 22  1  0
 22 23  1  0
 23 24  1  0
 24 25  2  0
 25 26  1  0
 26 27  2  0
 27 28  1  0
 28 29  2  0
  7  2  1  0
 19 10  1  0
 29 24  1  0
 11  6  1  0
 18 12  1  0
M  END
>  <Compound_ID>  (32) 
CHEMBL483800

>  <Active>  (32) 
1

>  <Smiles>  (32) 
O=C1NC(=O)c2c1ccc1c2c2cc(O)ccc2n1CCCNc1ccccc1

>  <canonical_smi>  (32) 
O=C1NC(=O)c2c1ccc1c2c2cc(O)ccc2n1CCCNc1ccccc1

>  <Set>  (32) 
G1 active

>  <Set_type>  (32) 
G1

>  <MW>  (32) 
385.42

>  <HBD>  (32) 
3

>  <HBA>  (32) 
4

>  <NRB>  (32) 
5

>  <NR>  (32) 
5

>  <NAR>  (32) 
4

>  <PSA>  (32) 
83.36

>  <Standard Type>  (32) 
nan

>  <Standard Relation>  (32) 
nan

>  <Standard Units>  (32) 
nan

>  <Standard Value>  (32) 
nan

>  <Assay ChEMBL ID>  (32) 
nan

>  <Assay Description>  (32) 
nan

>  <BAO Label>  (32) 
nan

$$$$

     RDKit          2D

 19 22  0  0  0  0  0  0  0  0999 V2000
   -4.8180   -6.5097    0.0000 O   0  0  0  0  0  0  0  0  0  0  0  0
   -4.2079   -5.1394    0.0000 C   0  0  0  0  0  0  0  0  0  0  0  0
   -4.9579   -3.8403    0.0000 N   0  0  0  0  0  0  0  0  0  0  0  0
   -3.9542   -2.7256    0.0000 C   0  0  0  0  0  0  0  0  0  0  0  0
   -4.2660   -1.2584    0.0000 O   0  0  0  0  0  0  0  0  0  0  0  0
   -2.5838   -3.3357    0.0000 C   0  0  0  0  0  0  0  0  0  0  0  0
   -2.7406   -4.8275    0.0000 C   0  0  0  0  0  0  0  0  0  0  0  0
   -1.5271   -5.7092    0.0000 C   0  0  0  0  0  0  0  0  0  0  0  0
   -0.1568   -5.0991    0.0000 C   0  0  0  0  0  0  0  0  0  0  0  0
   -0.0000   -3.6073    0.0000 C   0  0  0  0  0  0  0  0  0  0  0  0
    1.2135   -2.7256    0.0000 N   0  0  0  0  0  0  0  0  0  0  0  0
    0.7500   -1.2990    0.0000 C   0  0  0  0  0  0  0  0  0  0  0  0
    1.5000    0.0000    0.0000 C   0  0  0  0  0  0  0  0  0  0  0  0
    0.7500    1.2990    0.0000 C   0  0  0  0  0  0  0  0  0  0  0  0
   -0.7500    1.2990    0.0000 C   0  0  0  0  0  0  0  0  0  0  0  0
   -1.5000    2.5981    0.0000 O   0  0  0  0  0  0  0  0  0  0  0  0
   -1.5000    0.0000    0.0000 C   0  0  0  0  0  0  0  0  0  0  0  0
   -0.7500   -1.2990    0.0000 C   0  0  0  0  0  0  0  0  0  0  0  0
   -1.2135   -2.7256    0.0000 C   0  0  0  0  0  0  0  0  0  0  0  0
  1  2  2  0
  2  3  1  0
  3  4  1  0
  4  5  2  0
  4  6  1  0
  6  7  2  0
  7  8  1  0
  8  9  2  0
  9 10  1  0
 10 11  1  0
 11 12  1  0
 12 13  2  0
 13 14  1  0
 14 15  2  0
 15 16  1  0
 15 17  1  0
 17 18  2  0
 18 19  1  0
  7  2  1  0
 19 10  2  0
 19  6  1  0
 18 12  1  0
M  END
>  <Compound_ID>  (33) 
CHEMBL209907

>  <Active>  (33) 
1

>  <Smiles>  (33) 
O=C1NC(=O)c2c1ccc1[nH]c3ccc(O)cc3c21

>  <canonical_smi>  (33) 
O=C1NC(=O)c2c1ccc1[nH]c3ccc(O)cc3c21

>  <Set>  (33) 
G1 active

>  <Set_type>  (33) 
G1

>  <MW>  (33) 
252.23

>  <HBD>  (33) 
3

>  <HBA>  (33) 
3

>  <NRB>  (33) 
0

>  <NR>  (33) 
4

>  <NAR>  (33) 
3

>  <PSA>  (33) 
82.19

>  <Standard Type>  (33) 
nan

>  <Standard Relation>  (33) 
nan

>  <Standard Units>  (33) 
nan

>  <Standard Value>  (33) 
nan

>  <Assay ChEMBL ID>  (33) 
nan

>  <Assay Description>  (33) 
nan

>  <BAO Label>  (33) 
nan

$$$$

     RDKit          2D

 33 38  0  0  0  0  0  0  0  0999 V2000
    4.8180   -6.5097    0.0000 O   0  0  0  0  0  0  0  0  0  0  0  0
    4.2079   -5.1394    0.0000 C   0  0  0  0  0  0  0  0  0  0  0  0
    4.9579   -3.8403    0.0000 N   0  0  0  0  0  0  0  0  0  0  0  0
    3.9542   -2.7256    0.0000 C   0  0  0  0  0  0  0  0  0  0  0  0
    4.2660   -1.2584    0.0000 O   0  0  0  0  0  0  0  0  0  0  0  0
    2.5838   -3.3357    0.0000 C   0  0  0  0  0  0  0  0  0  0  0  0
    2.7406   -4.8275    0.0000 C   0  0  0  0  0  0  0  0  0  0  0  0
    1.5271   -5.7092    0.0000 C   0  0  0  0  0  0  0  0  0  0  0  0
    1.6839   -7.2010    0.0000 C   0  0  0  0  0  0  0  0  0  0  0  0
    0.4704   -8.0826    0.0000 C   0  0  0  0  0  0  0  0  0  0  0  0
    0.6272   -9.5744    0.0000 C   0  0  0  0  0  0  0  0  0  0  0  0
    1.9975  -10.1845    0.0000 C   0  0  0  0  0  0  0  0  0  0  0  0
    3.2110   -9.3029    0.0000 C   0  0  0  0  0  0  0  0  0  0  0  0
    3.0542   -7.8111    0.0000 C   0  0  0  0  0  0  0  0  0  0  0  0
    0.1568   -5.0991    0.0000 C   0  0  0  0  0  0  0  0  0  0  0  0
   -0.0000   -3.6073    0.0000 C   0  0  0  0  0  0  0  0  0  0  0  0
    1.2135   -2.7256    0.0000 C   0  0  0  0  0  0  0  0  0  0  0  0
    0.7500   -1.2990    0.0000 C   0  0  0  0  0  0  0  0  0  0  0  0
    1.5000    0.0000    0.0000 C   0  0  0  0  0  0  0  0  0  0  0  0
    0.7500    1.2990    0.0000 C   0  0  0  0  0  0  0  0  0  0  0  0
    1.5000    2.5981    0.0000 O   0  0  0  0  0  0  0  0  0  0  0  0
   -0.7500    1.2990    0.0000 C   0  0  0  0  0  0  0  0  0  0  0  0
   -1.5000    0.0000    0.0000 C   0  0  0  0  0  0  0  0  0  0  0  0
   -0.7500   -1.2990    0.0000 C   0  0  0  0  0  0  0  0  0  0  0  0
   -1.2135   -2.7256    0.0000 N   0  0  0  0  0  0  0  0  0  0  0  0
   -2.6401   -3.1891    0.0000 C   0  0  0  0  0  0  0  0  0  0  0  0
   -3.7548   -2.1855    0.0000 C   0  0  0  0  0  0  0  0  0  0  0  0
   -5.1814   -2.6490    0.0000 C   0  0  0  0  0  0  0  0  0  0  0  0
   -6.2961   -1.6453    0.0000 N   0  0  0  0  0  0  0  0  0  0  0  0
   -7.7634   -1.9571    0.0000 C   0  0  0  0  0  0  0  0  0  0  0  0
   -8.5134   -0.6581    0.0000 C   0  0  0  0  0  0  0  0  0  0  0  0
   -7.5097    0.4566    0.0000 N   0  0  0  0  0  0  0  0  0  0  0  0
   -6.1393   -0.1535    0.0000 C   0  0  0  0  0  0  0  0  0  0  0  0
  1  2  2  0
  2  3  1  0
  3  4  1  0
  4  5  2  0
  4  6  1  0
  6  7  2  0
  7  8  1  0
  8  9  1  0
  9 10  2  0
 10 11  1  0
 11 12  2  0
 12 13  1  0
 13 14  2  0
  8 15  2  0
 15 16  1  0
 16 17  2  0
 17 18  1  0
 18 19  2  0
 19 20  1  0
 20 21  1  0
 20 22  2  0
 22 23  1  0
 23 24  2  0
 24 25  1  0
 25 26  1  0
 26 27  1  0
 27 28  1  0
 28 29  1  0
 29 30  1  0
 30 31  2  0
 31 32  1  0
 32 33  2  0
  7  2  1  0
 14  9  1  0
 25 16  1  0
 33 29  1  0
 17  6  1  0
 24 18  1  0
M  END
>  <Compound_ID>  (34) 
CHEMBL519238

>  <Active>  (34) 
1

>  <Smiles>  (34) 
O=C1NC(=O)c2c1c(-c1ccccc1)cc1c2c2cc(O)ccc2n1CCCn1ccnc1

>  <canonical_smi>  (34) 
O=C1NC(=O)c2c1c(-c1ccccc1)cc1c2c2cc(O)ccc2n1CCCn1ccnc1

>  <Set>  (34) 
G1 active

>  <Set_type>  (34) 
G1

>  <MW>  (34) 
436.47

>  <HBD>  (34) 
2

>  <HBA>  (34) 
4

>  <NRB>  (34) 
5

>  <NR>  (34) 
6

>  <NAR>  (34) 
5

>  <PSA>  (34) 
89.15

>  <Standard Type>  (34) 
nan

>  <Standard Relation>  (34) 
nan

>  <Standard Units>  (34) 
nan

>  <Standard Value>  (34) 
nan

>  <Assay ChEMBL ID>  (34) 
nan

>  <Assay Description>  (34) 
nan

>  <BAO Label>  (34) 
nan

$$$$

     RDKit          2D

 35 40  0  0  0  0  0  0  0  0999 V2000
    4.9032   -6.2965    0.0000 O   0  0  0  0  0  0  0  0  0  0  0  0
    4.2079   -5.1394    0.0000 C   0  0  0  0  0  0  0  0  0  0  0  0
    4.9579   -3.8403    0.0000 N   0  0  0  0  0  0  0  0  0  0  0  0
    3.9542   -2.7256    0.0000 C   0  0  0  0  0  0  0  0  0  0  0  0
    4.2660   -1.2584    0.0000 O   0  0  0  0  0  0  0  0  0  0  0  0
    2.5838   -3.3357    0.0000 C   0  0  0  0  0  0  0  0  0  0  0  0
    2.7406   -4.8275    0.0000 C   0  0  0  0  0  0  0  0  0  0  0  0
    1.5271   -5.7092    0.0000 C   0  0  0  0  0  0  0  0  0  0  0  0
    1.6839   -7.2010    0.0000 C   0  0  0  0  0  0  0  0  0  0  0  0
    3.0542   -7.8111    0.0000 C   0  0  0  0  0  0  0  0  0  0  0  0
    4.2350   -7.1566    0.0000 Cl  0  0  0  0  0  0  0  0  0  0  0  0
    3.2110   -9.3029    0.0000 C   0  0  0  0  0  0  0  0  0  0  0  0
    1.9975  -10.1845    0.0000 C   0  0  0  0  0  0  0  0  0  0  0  0
    0.6272   -9.5744    0.0000 C   0  0  0  0  0  0  0  0  0  0  0  0
    0.4704   -8.0826    0.0000 C   0  0  0  0  0  0  0  0  0  0  0  0
   -0.8999   -7.4725    0.0000 Cl  0  0  0  0  0  0  0  0  0  0  0  0
    0.1568   -5.0991    0.0000 C   0  0  0  0  0  0  0  0  0  0  0  0
   -0.0000   -3.6073    0.0000 C   0  0  0  0  0  0  0  0  0  0  0  0
    1.2135   -2.7256    0.0000 C   0  0  0  0  0  0  0  0  0  0  0  0
    0.7500   -1.2990    0.0000 C   0  0  0  0  0  0  0  0  0  0  0  0
    1.5000    0.0000    0.0000 C   0  0  0  0  0  0  0  0  0  0  0  0
    0.7500    1.2990    0.0000 C   0  0  0  0  0  0  0  0  0  0  0  0
    1.5000    2.5981    0.0000 O   0  0  0  0  0  0  0  0  0  0  0  0
   -0.7500    1.2990    0.0000 C   0  0  0  0  0  0  0  0  0  0  0  0
   -1.5000    0.0000    0.0000 C   0  0  0  0  0  0  0  0  0  0  0  0
   -0.7500   -1.2990    0.0000 C   0  0  0  0  0  0  0  0  0  0  0  0
   -1.2135   -2.7256    0.0000 N   0  0  0  0  0  0  0  0  0  0  0  0
   -2.6401   -3.1891    0.0000 C   0  0  0  0  0  0  0  0  0  0  0  0
   -3.7548   -2.1855    0.0000 C   0  0  0  0  0  0  0  0  0  0  0  0
   -5.1814   -2.6490    0.0000 N   0  0  0  0  0  0  0  0  0  0  0  0
   -6.2961   -1.6453    0.0000 C   0  0  0  0  0  0  0  0  0  0  0  0
   -7.7227   -2.1088    0.0000 C   0  0  0  0  0  0  0  0  0  0  0  0
   -8.0346   -3.5760    0.0000 O   0  0  0  0  0  0  0  0  0  0  0  0
   -6.9199   -4.5797    0.0000 C   0  0  0  0  0  0  0  0  0  0  0  0
   -5.4933   -4.1162    0.0000 C   0  0  0  0  0  0  0  0  0  0  0  0
  1  2  2  0
  2  3  1  0
  3  4  1  0
  4  5  2  0
  4  6  1  0
  6  7  2  0
  7  8  1  0
  8  9  1  0
  9 10  2  0
 10 11  1  0
 10 12  1  0
 12 13  2  0
 13 14  1  0
 14 15  2  0
 15 16  1  0
  8 17  2  0
 17 18  1  0
 18 19  2  0
 19 20  1  0
 20 21  2  0
 21 22  1  0
 22 23  1  0
 22 24  2  0
 24 25  1  0
 25 26  2  0
 26 27  1  0
 27 28  1  0
 28 29  1  0
 29 30  1  0
 30 31  1  0
 31 32  1  0
 32 33  1  0
 33 34  1  0
 34 35  1  0
  7  2  1  0
 15  9  1  0
 27 18  1  0
 35 30  1  0
 19  6  1  0
 26 20  1  0
M  END
>  <Compound_ID>  (35) 
CHEMBL520071

>  <Active>  (35) 
1

>  <Smiles>  (35) 
O=C1NC(=O)c2c1c(-c1c(Cl)cccc1Cl)cc1c2c2cc(O)ccc2n1CCN1CCOCC1

>  <canonical_smi>  (35) 
O=C1NC(=O)c2c1c(-c1c(Cl)cccc1Cl)cc1c2c2cc(O)ccc2n1CCN1CCOCC1

>  <Set>  (35) 
G1 active

>  <Set_type>  (35) 
G1

>  <MW>  (35) 
510.38

>  <HBD>  (35) 
2

>  <HBA>  (35) 
5

>  <NRB>  (35) 
4

>  <NR>  (35) 
6

>  <NAR>  (35) 
4

>  <PSA>  (35) 
83.8

>  <Standard Type>  (35) 
nan

>  <Standard Relation>  (35) 
nan

>  <Standard Units>  (35) 
nan

>  <Standard Value>  (35) 
nan

>  <Assay ChEMBL ID>  (35) 
nan

>  <Assay Description>  (35) 
nan

>  <BAO Label>  (35) 
nan

$$$$

     RDKit          2D

 34 39  0  0  0  0  0  0  0  0999 V2000
    4.9032   -6.2965    0.0000 O   0  0  0  0  0  0  0  0  0  0  0  0
    4.2079   -5.1394    0.0000 C   0  0  0  0  0  0  0  0  0  0  0  0
    4.9579   -3.8403    0.0000 N   0  0  0  0  0  0  0  0  0  0  0  0
    3.9542   -2.7256    0.0000 C   0  0  0  0  0  0  0  0  0  0  0  0
    4.2660   -1.2584    0.0000 O   0  0  0  0  0  0  0  0  0  0  0  0
    2.5838   -3.3357    0.0000 C   0  0  0  0  0  0  0  0  0  0  0  0
    2.7406   -4.8275    0.0000 C   0  0  0  0  0  0  0  0  0  0  0  0
    1.5271   -5.7092    0.0000 C   0  0  0  0  0  0  0  0  0  0  0  0
    1.6839   -7.2010    0.0000 C   0  0  0  0  0  0  0  0  0  0  0  0
    3.0542   -7.8111    0.0000 C   0  0  0  0  0  0  0  0  0  0  0  0
    4.2350   -7.1566    0.0000 Cl  0  0  0  0  0  0  0  0  0  0  0  0
    3.2110   -9.3029    0.0000 C   0  0  0  0  0  0  0  0  0  0  0  0
    1.9975  -10.1845    0.0000 C   0  0  0  0  0  0  0  0  0  0  0  0
    0.6272   -9.5744    0.0000 C   0  0  0  0  0  0  0  0  0  0  0  0
    0.4704   -8.0826    0.0000 C   0  0  0  0  0  0  0  0  0  0  0  0
   -0.8999   -7.4725    0.0000 Cl  0  0  0  0  0  0  0  0  0  0  0  0
    0.1568   -5.0991    0.0000 C   0  0  0  0  0  0  0  0  0  0  0  0
   -0.0000   -3.6073    0.0000 C   0  0  0  0  0  0  0  0  0  0  0  0
    1.2135   -2.7256    0.0000 C   0  0  0  0  0  0  0  0  0  0  0  0
    0.7500   -1.2990    0.0000 C   0  0  0  0  0  0  0  0  0  0  0  0
    1.5000    0.0000    0.0000 C   0  0  0  0  0  0  0  0  0  0  0  0
    0.7500    1.2990    0.0000 C   0  0  0  0  0  0  0  0  0  0  0  0
    1.5000    2.5981    0.0000 O   0  0  0  0  0  0  0  0  0  0  0  0
   -0.7500    1.2990    0.0000 C   0  0  0  0  0  0  0  0  0  0  0  0
   -1.5000    0.0000    0.0000 C   0  0  0  0  0  0  0  0  0  0  0  0
   -0.7500   -1.2990    0.0000 C   0  0  0  0  0  0  0  0  0  0  0  0
   -1.2135   -2.7256    0.0000 N   0  0  0  0  0  0  0  0  0  0  0  0
   -2.6401   -3.1891    0.0000 C   0  0  0  0  0  0  0  0  0  0  0  0
   -3.7548   -2.1855    0.0000 C   0  0  0  0  0  0  0  0  0  0  0  0
   -5.1814   -2.6490    0.0000 N   0  0  0  0  0  0  0  0  0  0  0  0
   -5.6449   -4.0756    0.0000 C   0  0  0  0  0  0  0  0  0  0  0  0
   -7.1449   -4.0756    0.0000 C   0  0  0  0  0  0  0  0  0  0  0  0
   -7.6085   -2.6490    0.0000 N   0  0  0  0  0  0  0  0  0  0  0  0
   -6.3949   -1.7673    0.0000 C   0  0  0  0  0  0  0  0  0  0  0  0
  1  2  2  0
  2  3  1  0
  3  4  1  0
  4  5  2  0
  4  6  1  0
  6  7  2  0
  7  8  1  0
  8  9  1  0
  9 10  2  0
 10 11  1  0
 10 12  1  0
 12 13  2  0
 13 14  1  0
 14 15  2  0
 15 16  1  0
  8 17  2  0
 17 18  1  0
 18 19  2  0
 19 20  1  0
 20 21  2  0
 21 22  1  0
 22 23  1  0
 22 24  2  0
 24 25  1  0
 25 26  2  0
 26 27  1  0
 27 28  1  0
 28 29  1  0
 29 30  1  0
 30 31  1  0
 31 32  2  0
 32 33  1  0
 33 34  2  0
  7  2  1  0
 15  9  1  0
 27 18  1  0
 34 30  1  0
 19  6  1  0
 26 20  1  0
M  END
>  <Compound_ID>  (36) 
CHEMBL508294

>  <Active>  (36) 
1

>  <Smiles>  (36) 
O=C1NC(=O)c2c1c(-c1c(Cl)cccc1Cl)cc1c2c2cc(O)ccc2n1CCn1ccnc1

>  <canonical_smi>  (36) 
O=C1NC(=O)c2c1c(-c1c(Cl)cccc1Cl)cc1c2c2cc(O)ccc2n1CCn1ccnc1

>  <Set>  (36) 
G1 active

>  <Set_type>  (36) 
G1

>  <MW>  (36) 
491.33

>  <HBD>  (36) 
2

>  <HBA>  (36) 
4

>  <NRB>  (36) 
4

>  <NR>  (36) 
6

>  <NAR>  (36) 
5

>  <PSA>  (36) 
89.15

>  <Standard Type>  (36) 
nan

>  <Standard Relation>  (36) 
nan

>  <Standard Units>  (36) 
nan

>  <Standard Value>  (36) 
nan

>  <Assay ChEMBL ID>  (36) 
nan

>  <Assay Description>  (36) 
nan

>  <BAO Label>  (36) 
nan

$$$$

     RDKit          2D

 24 28  0  0  0  0  0  0  0  0999 V2000
   -4.8180   -6.5097    0.0000 O   0  0  0  0  0  0  0  0  0  0  0  0
   -4.2079   -5.1394    0.0000 C   0  0  0  0  0  0  0  0  0  0  0  0
   -4.9579   -3.8403    0.0000 N   0  0  0  0  0  0  0  0  0  0  0  0
   -3.9542   -2.7256    0.0000 C   0  0  0  0  0  0  0  0  0  0  0  0
   -4.2660   -1.2584    0.0000 O   0  0  0  0  0  0  0  0  0  0  0  0
   -2.5838   -3.3357    0.0000 C   0  0  0  0  0  0  0  0  0  0  0  0
   -2.7406   -4.8275    0.0000 C   0  0  0  0  0  0  0  0  0  0  0  0
   -1.5271   -5.7092    0.0000 C   0  0  0  0  0  0  0  0  0  0  0  0
   -1.6839   -7.2010    0.0000 C   0  0  0  0  0  0  0  0  0  0  0  0
   -0.5692   -8.2047    0.0000 C   0  0  0  0  0  0  0  0  0  0  0  0
   -1.1793   -9.5750    0.0000 C   0  0  0  0  0  0  0  0  0  0  0  0
   -2.6711   -9.4182    0.0000 C   0  0  0  0  0  0  0  0  0  0  0  0
   -2.9829   -7.9510    0.0000 S   0  0  0  0  0  0  0  0  0  0  0  0
   -0.1568   -5.0991    0.0000 C   0  0  0  0  0  0  0  0  0  0  0  0
   -0.0000   -3.6073    0.0000 C   0  0  0  0  0  0  0  0  0  0  0  0
    1.2135   -2.7256    0.0000 N   0  0  0  0  0  0  0  0  0  0  0  0
    0.7500   -1.2990    0.0000 C   0  0  0  0  0  0  0  0  0  0  0  0
    1.5000    0.0000    0.0000 C   0  0  0  0  0  0  0  0  0  0  0  0
    0.7500    1.2990    0.0000 C   0  0  0  0  0  0  0  0  0  0  0  0
   -0.7500    1.2990    0.0000 C   0  0  0  0  0  0  0  0  0  0  0  0
   -1.5000    2.5981    0.0000 O   0  0  0  0  0  0  0  0  0  0  0  0
   -1.5000    0.0000    0.0000 C   0  0  0  0  0  0  0  0  0  0  0  0
   -0.7500   -1.2990    0.0000 C   0  0  0  0  0  0  0  0  0  0  0  0
   -1.2135   -2.7256    0.0000 C   0  0  0  0  0  0  0  0  0  0  0  0
  1  2  2  0
  2  3  1  0
  3  4  1  0
  4  5  2  0
  4  6  1  0
  6  7  2  0
  7  8  1  0
  8  9  1  0
  9 10  2  0
 10 11  1  0
 11 12  2  0
 12 13  1  0
  8 14  2  0
 14 15  1  0
 15 16  1  0
 16 17  1  0
 17 18  2  0
 18 19  1  0
 19 20  2  0
 20 21  1  0
 20 22  1  0
 22 23  2  0
 23 24  1  0
  7  2  1  0
 13  9  1  0
 24 15  2  0
 24  6  1  0
 23 17  1  0
M  END
>  <Compound_ID>  (37) 
CHEMBL209486

>  <Active>  (37) 
1

>  <Smiles>  (37) 
O=C1NC(=O)c2c1c(-c1cccs1)cc1[nH]c3ccc(O)cc3c21

>  <canonical_smi>  (37) 
O=C1NC(=O)c2c1c(-c1cccs1)cc1[nH]c3ccc(O)cc3c21

>  <Set>  (37) 
G1 active

>  <Set_type>  (37) 
G1

>  <MW>  (37) 
334.36

>  <HBD>  (37) 
3

>  <HBA>  (37) 
3

>  <NRB>  (37) 
1

>  <NR>  (37) 
5

>  <NAR>  (37) 
4

>  <PSA>  (37) 
82.19

>  <Standard Type>  (37) 
nan

>  <Standard Relation>  (37) 
nan

>  <Standard Units>  (37) 
nan

>  <Standard Value>  (37) 
nan

>  <Assay ChEMBL ID>  (37) 
nan

>  <Assay Description>  (37) 
nan

>  <BAO Label>  (37) 
nan

$$$$

     RDKit          2D

 20 23  0  0  0  0  0  0  0  0999 V2000
    2.6401   -3.1891    0.0000 C   0  0  0  0  0  0  0  0  0  0  0  0
    1.2135   -2.7256    0.0000 N   0  0  0  0  0  0  0  0  0  0  0  0
    0.7500   -1.2990    0.0000 C   0  0  0  0  0  0  0  0  0  0  0  0
    1.5000    0.0000    0.0000 C   0  0  0  0  0  0  0  0  0  0  0  0
    0.7500    1.2990    0.0000 C   0  0  0  0  0  0  0  0  0  0  0  0
   -0.7500    1.2990    0.0000 C   0  0  0  0  0  0  0  0  0  0  0  0
   -1.5000    2.5981    0.0000 O   0  0  0  0  0  0  0  0  0  0  0  0
   -1.5000    0.0000    0.0000 C   0  0  0  0  0  0  0  0  0  0  0  0
   -0.7500   -1.2990    0.0000 C   0  0  0  0  0  0  0  0  0  0  0  0
   -1.2135   -2.7256    0.0000 C   0  0  0  0  0  0  0  0  0  0  0  0
   -2.5838   -3.3357    0.0000 C   0  0  0  0  0  0  0  0  0  0  0  0
   -2.7406   -4.8275    0.0000 C   0  0  0  0  0  0  0  0  0  0  0  0
   -1.5271   -5.7092    0.0000 C   0  0  0  0  0  0  0  0  0  0  0  0
   -0.1568   -5.0991    0.0000 C   0  0  0  0  0  0  0  0  0  0  0  0
   -0.0000   -3.6073    0.0000 C   0  0  0  0  0  0  0  0  0  0  0  0
   -4.2079   -5.1394    0.0000 C   0  0  0  0  0  0  0  0  0  0  0  0
   -4.8180   -6.5097    0.0000 O   0  0  0  0  0  0  0  0  0  0  0  0
   -4.9579   -3.8403    0.0000 N   0  0  0  0  0  0  0  0  0  0  0  0
   -3.9542   -2.7256    0.0000 C   0  0  0  0  0  0  0  0  0  0  0  0
   -4.2660   -1.2584    0.0000 O   0  0  0  0  0  0  0  0  0  0  0  0
  1  2  1  0
  2  3  1  0
  3  4  2  0
  4  5  1  0
  5  6  2  0
  6  7  1  0
  6  8  1  0
  8  9  2  0
  9 10  1  0
 10 11  2  0
 11 12  1  0
 12 13  2  0
 13 14  1  0
 14 15  2  0
 12 16  1  0
 16 17  2  0
 16 18  1  0
 18 19  1  0
 19 20  2  0
 15  2  1  0
  9  3  1  0
 15 10  1  0
 19 11  1  0
M  END
>  <Compound_ID>  (38) 
CHEMBL507613

>  <Active>  (38) 
1

>  <Smiles>  (38) 
Cn1c2ccc(O)cc2c2c3c(ccc21)C(=O)NC3=O

>  <canonical_smi>  (38) 
Cn1c2ccc(O)cc2c2c3c(ccc21)C(=O)NC3=O

>  <Set>  (38) 
G1 active

>  <Set_type>  (38) 
G1

>  <MW>  (38) 
266.26

>  <HBD>  (38) 
2

>  <HBA>  (38) 
3

>  <NRB>  (38) 
0

>  <NR>  (38) 
4

>  <NAR>  (38) 
3

>  <PSA>  (38) 
71.33

>  <Standard Type>  (38) 
nan

>  <Standard Relation>  (38) 
nan

>  <Standard Units>  (38) 
nan

>  <Standard Value>  (38) 
nan

>  <Assay ChEMBL ID>  (38) 
nan

>  <Assay Description>  (38) 
nan

>  <BAO Label>  (38) 
nan

$$$$

     RDKit          2D

 41 45  0  0  0  0  0  0  0  0999 V2000
   -3.0000   -2.5981    0.0000 C   0  0  0  0  0  0  0  0  0  0  0  0
   -1.5000   -2.5981    0.0000 N   0  0  0  0  0  0  0  0  0  0  0  0
   -0.7500   -3.8971    0.0000 C   0  0  0  0  0  0  0  0  0  0  0  0
   -1.5000   -5.1962    0.0000 O   0  0  0  0  0  0  0  0  0  0  0  0
    0.7500   -3.8971    0.0000 C   0  0  0  0  0  0  0  0  0  0  0  0
    1.5000   -5.1962    0.0000 C   0  0  0  0  0  0  0  0  0  0  0  0
    0.7500   -6.4952    0.0000 C   0  0  0  0  0  0  0  0  0  0  0  0
   -0.7500   -6.4952    0.0000 Cl  0  0  0  0  0  0  0  0  0  0  0  0
    1.5000   -7.7942    0.0000 C   0  0  0  0  0  0  0  0  0  0  0  0
    3.0000   -7.7942    0.0000 C   0  0  0  0  0  0  0  0  0  0  0  0
    3.7500   -6.4952    0.0000 C   0  0  0  0  0  0  0  0  0  0  0  0
    3.0000   -5.1962    0.0000 C   0  0  0  0  0  0  0  0  0  0  0  0
    3.7500   -3.8971    0.0000 Cl  0  0  0  0  0  0  0  0  0  0  0  0
    1.5000   -2.5981    0.0000 C   0  0  0  0  0  0  0  0  0  0  0  0
    0.7500   -1.2990    0.0000 C   0  0  0  0  0  0  0  0  0  0  0  0
    1.5000    0.0000    0.0000 C   0  0  0  0  0  0  0  0  0  0  0  0
    0.7500    1.2990    0.0000 N   0  0  0  0  0  0  0  0  0  0  0  0
   -0.7500    1.2990    0.0000 C   0  0  0  0  0  0  0  0  0  0  0  0
   -1.5000    2.5981    0.0000 N   0  0  0  0  0  0  0  0  0  0  0  0
   -0.7500    3.8971    0.0000 C   0  0  0  0  0  0  0  0  0  0  0  0
    0.7500    3.8971    0.0000 C   0  0  0  0  0  0  0  0  0  0  0  0
    1.5000    5.1962    0.0000 C   0  0  0  0  0  0  0  0  0  0  0  0
    0.7500    6.4952    0.0000 C   0  0  0  0  0  0  0  0  0  0  0  0
    1.5000    7.7942    0.0000 C   0  0  0  0  0  0  0  0  0  0  0  0
    3.0000    7.7942    0.0000 C   0  0  0  0  0  0  0  0  0  0  0  0
    3.7500    9.0933    0.0000 C   0  0  0  0  0  0  0  0  0  0  0  0
    5.2500    9.0933    0.0000 C   0  0  0  0  0  0  0  0  0  0  0  0
    6.0000    7.7942    0.0000 O   0  0  0  0  0  0  0  0  0  0  0  0
    6.0000   10.3923    0.0000 O   0  0  0  0  0  0  0  0  0  0  0  0
    7.5000   10.3923    0.0000 C   0  0  0  0  0  0  0  0  0  0  0  0
    8.2500   11.6913    0.0000 C   0  0  0  0  0  0  0  0  0  0  0  0
    9.7500   11.6913    0.0000 N   0  0  0  0  0  0  0  0  0  0  0  0
   10.5000   10.3923    0.0000 C   0  0  0  0  0  0  0  0  0  0  0  0
   12.0000   10.3923    0.0000 C   0  0  0  0  0  0  0  0  0  0  0  0
   12.7500   11.6913    0.0000 C   0  0  0  0  0  0  0  0  0  0  0  0
   12.0000   12.9904    0.0000 C   0  0  0  0  0  0  0  0  0  0  0  0
   10.5000   12.9904    0.0000 C   0  0  0  0  0  0  0  0  0  0  0  0
   -0.7500    6.4952    0.0000 C   0  0  0  0  0  0  0  0  0  0  0  0
   -1.5000    5.1962    0.0000 C   0  0  0  0  0  0  0  0  0  0  0  0
   -1.5000    0.0000    0.0000 N   0  0  0  0  0  0  0  0  0  0  0  0
   -0.7500   -1.2990    0.0000 C   0  0  0  0  0  0  0  0  0  0  0  0
  1  2  1  0
  2  3  1  0
  3  4  2  0
  3  5  1  0
  5  6  1  0
  6  7  2  0
  7  8  1  0
  7  9  1  0
  9 10  2  0
 10 11  1  0
 11 12  2  0
 12 13  1  0
  5 14  2  0
 14 15  1  0
 15 16  2  0
 16 17  1  0
 17 18  2  0
 18 19  1  0
 19 20  1  0
 20 21  2  0
 21 22  1  0
 22 23  2  0
 23 24  1  0
 24 25  1  0
 25 26  1  0
 26 27  1  0
 27 28  2  0
 27 29  1  0
 29 30  1  0
 30 31  1  0
 31 32  1  0
 32 33  1  0
 33 34  1  0
 34 35  1  0
 35 36  1  0
 36 37  1  0
 23 38  1  0
 38 39  2  0
 18 40  1  0
 40 41  2  0
 41  2  1  0
 12  6  1  0
 41 15  1  0
 39 20  1  0
 37 32  1  0
M  END
>  <Compound_ID>  (39) 
CHEMBL362692

>  <Active>  (39) 
1

>  <Smiles>  (39) 
Cn1c(=O)c(-c2c(Cl)cccc2Cl)cc2cnc(Nc3ccc(CCCC(=O)OCCN4CCCCC4)cc3)nc21

>  <canonical_smi>  (39) 
Cn1c(=O)c(-c2c(Cl)cccc2Cl)cc2cnc(Nc3ccc(CCCC(=O)OCCN4CCCCC4)cc3)nc21

>  <Set>  (39) 
G1 active

>  <Set_type>  (39) 
G1

>  <MW>  (39) 
594.54

>  <HBD>  (39) 
1

>  <HBA>  (39) 
7

>  <NRB>  (39) 
10

>  <NR>  (39) 
5

>  <NAR>  (39) 
4

>  <PSA>  (39) 
89.35

>  <Standard Type>  (39) 
nan

>  <Standard Relation>  (39) 
nan

>  <Standard Units>  (39) 
nan

>  <Standard Value>  (39) 
nan

>  <Assay ChEMBL ID>  (39) 
nan

>  <Assay Description>  (39) 
nan

>  <BAO Label>  (39) 
nan

$$$$

     RDKit          2D

 38 43  0  0  0  0  0  0  0  0999 V2000
    2.6401   -3.1891    0.0000 C   0  0  0  0  0  0  0  0  0  0  0  0
    1.2135   -2.7256    0.0000 N   0  0  0  0  0  0  0  0  0  0  0  0
    0.7500   -1.2990    0.0000 C   0  0  0  0  0  0  0  0  0  0  0  0
    1.5000    0.0000    0.0000 C   0  0  0  0  0  0  0  0  0  0  0  0
    0.7500    1.2990    0.0000 C   0  0  0  0  0  0  0  0  0  0  0  0
    1.5000    2.5981    0.0000 S   0  0  0  0  0  0  0  0  0  0  0  0
    0.2010    3.3481    0.0000 O   0  0  0  0  0  0  0  0  0  0  0  0
    2.7990    1.8481    0.0000 O   0  0  0  0  0  0  0  0  0  0  0  0
    2.2500    3.8971    0.0000 C   0  0  0  0  0  0  0  0  0  0  0  0
    1.5000    5.1962    0.0000 C   0  0  0  0  0  0  0  0  0  0  0  0
    2.2500    6.4952    0.0000 C   0  0  0  0  0  0  0  0  0  0  0  0
    1.5000    7.7942    0.0000 N   0  0  0  0  0  0  0  0  0  0  0  0
    0.0082    7.9510    0.0000 C   0  0  0  0  0  0  0  0  0  0  0  0
   -0.3037    9.4182    0.0000 C   0  0  0  0  0  0  0  0  0  0  0  0
    0.9954   10.1682    0.0000 C   0  0  0  0  0  0  0  0  0  0  0  0
    2.1101    9.1645    0.0000 C   0  0  0  0  0  0  0  0  0  0  0  0
   -0.7500    1.2990    0.0000 C   0  0  0  0  0  0  0  0  0  0  0  0
   -1.5000    2.5981    0.0000 O   0  0  0  0  0  0  0  0  0  0  0  0
   -1.5000    0.0000    0.0000 C   0  0  0  0  0  0  0  0  0  0  0  0
   -0.7500   -1.2990    0.0000 C   0  0  0  0  0  0  0  0  0  0  0  0
   -1.2135   -2.7256    0.0000 C   0  0  0  0  0  0  0  0  0  0  0  0
   -2.5838   -3.3357    0.0000 C   0  0  0  0  0  0  0  0  0  0  0  0
   -2.7406   -4.8275    0.0000 C   0  0  0  0  0  0  0  0  0  0  0  0
   -1.5271   -5.7092    0.0000 C   0  0  0  0  0  0  0  0  0  0  0  0
   -1.6839   -7.2010    0.0000 C   0  0  0  0  0  0  0  0  0  0  0  0
   -3.0542   -7.8111    0.0000 C   0  0  0  0  0  0  0  0  0  0  0  0
   -3.2110   -9.3029    0.0000 C   0  0  0  0  0  0  0  0  0  0  0  0
   -1.9975  -10.1845    0.0000 C   0  0  0  0  0  0  0  0  0  0  0  0
   -0.6272   -9.5744    0.0000 C   0  0  0  0  0  0  0  0  0  0  0  0
   -0.4704   -8.0826    0.0000 C   0  0  0  0  0  0  0  0  0  0  0  0
    0.8999   -7.4725    0.0000 Cl  0  0  0  0  0  0  0  0  0  0  0  0
   -0.1568   -5.0991    0.0000 C   0  0  0  0  0  0  0  0  0  0  0  0
   -0.0000   -3.6073    0.0000 C   0  0  0  0  0  0  0  0  0  0  0  0
   -4.2079   -5.1394    0.0000 C   0  0  0  0  0  0  0  0  0  0  0  0
   -4.8180   -6.5097    0.0000 O   0  0  0  0  0  0  0  0  0  0  0  0
   -4.9579   -3.8403    0.0000 N   0  0  0  0  0  0  0  0  0  0  0  0
   -3.9542   -2.7256    0.0000 C   0  0  0  0  0  0  0  0  0  0  0  0
   -4.2660   -1.2584    0.0000 O   0  0  0  0  0  0  0  0  0  0  0  0
  1  2  1  0
  2  3  1  0
  3  4  2  0
  4  5  1  0
  5  6  1  0
  6  7  2  0
  6  8  2  0
  6  9  1  0
  9 10  1  0
 10 11  1  0
 11 12  1  0
 12 13  1  0
 13 14  1  0
 14 15  1  0
 15 16  1  0
  5 17  2  0
 17 18  1  0
 17 19  1  0
 19 20  2  0
 20 21  1  0
 21 22  2  0
 22 23  1  0
 23 24  2  0
 24 25  1  0
 25 26  2  0
 26 27  1  0
 27 28  2  0
 28 29  1  0
 29 30  2  0
 30 31  1  0
 24 32  1  0
 32 33  2  0
 23 34  1  0
 34 35  2  0
 34 36  1  0
 36 37  1  0
 37 38  2  0
 33  2  1  0
 20  3  1  0
 33 21  1  0
 16 12  1  0
 37 22  1  0
 30 25  1  0
M  END
>  <Compound_ID>  (40) 
CHEMBL257857

>  <Active>  (40) 
1

>  <Smiles>  (40) 
Cn1c2cc(S(=O)(=O)CCCN3CCCC3)c(O)cc2c2c3c(c(-c4ccccc4Cl)cc21)C(=O)NC3=O

>  <canonical_smi>  (40) 
Cn1c2cc(S(=O)(=O)CCCN3CCCC3)c(O)cc2c2c3c(c(-c4ccccc4Cl)cc21)C(=O)NC3=O

>  <Set>  (40) 
G1 active

>  <Set_type>  (40) 
G1

>  <MW>  (40) 
552.05

>  <HBD>  (40) 
2

>  <HBA>  (40) 
6

>  <NRB>  (40) 
6

>  <NR>  (40) 
6

>  <NAR>  (40) 
4

>  <PSA>  (40) 
108.71

>  <Standard Type>  (40) 
nan

>  <Standard Relation>  (40) 
nan

>  <Standard Units>  (40) 
nan

>  <Standard Value>  (40) 
nan

>  <Assay ChEMBL ID>  (40) 
nan

>  <Assay Description>  (40) 
nan

>  <BAO Label>  (40) 
nan

$$$$

     RDKit          2D

 29 32  0  0  0  0  0  0  0  0999 V2000
    8.1673  -10.4486    0.0000 C   0  0  0  0  0  0  0  0  0  0  0  0
    7.8555   -8.9814    0.0000 N   0  0  0  0  0  0  0  0  0  0  0  0
    8.9702   -7.9777    0.0000 C   0  0  0  0  0  0  0  0  0  0  0  0
    6.4289   -8.5179    0.0000 C   0  0  0  0  0  0  0  0  0  0  0  0
    6.1170   -7.0506    0.0000 C   0  0  0  0  0  0  0  0  0  0  0  0
    4.6904   -6.5871    0.0000 N   0  0  0  0  0  0  0  0  0  0  0  0
    4.3786   -5.1199    0.0000 C   0  0  0  0  0  0  0  0  0  0  0  0
    5.4933   -4.1162    0.0000 O   0  0  0  0  0  0  0  0  0  0  0  0
    2.9520   -4.6564    0.0000 C   0  0  0  0  0  0  0  0  0  0  0  0
    2.6401   -3.1891    0.0000 C   0  0  0  0  0  0  0  0  0  0  0  0
    1.2135   -2.7256    0.0000 N   0  0  0  0  0  0  0  0  0  0  0  0
    0.7500   -1.2990    0.0000 C   0  0  0  0  0  0  0  0  0  0  0  0
    1.5000    0.0000    0.0000 C   0  0  0  0  0  0  0  0  0  0  0  0
    0.7500    1.2990    0.0000 C   0  0  0  0  0  0  0  0  0  0  0  0
   -0.7500    1.2990    0.0000 C   0  0  0  0  0  0  0  0  0  0  0  0
   -1.5000    2.5981    0.0000 O   0  0  0  0  0  0  0  0  0  0  0  0
   -1.5000    0.0000    0.0000 C   0  0  0  0  0  0  0  0  0  0  0  0
   -0.7500   -1.2990    0.0000 C   0  0  0  0  0  0  0  0  0  0  0  0
   -1.2135   -2.7256    0.0000 C   0  0  0  0  0  0  0  0  0  0  0  0
   -2.5838   -3.3357    0.0000 C   0  0  0  0  0  0  0  0  0  0  0  0
   -2.7406   -4.8275    0.0000 C   0  0  0  0  0  0  0  0  0  0  0  0
   -1.5271   -5.7092    0.0000 C   0  0  0  0  0  0  0  0  0  0  0  0
   -0.1568   -5.0991    0.0000 C   0  0  0  0  0  0  0  0  0  0  0  0
   -0.0000   -3.6073    0.0000 C   0  0  0  0  0  0  0  0  0  0  0  0
   -4.2079   -5.1394    0.0000 C   0  0  0  0  0  0  0  0  0  0  0  0
   -4.8180   -6.5097    0.0000 O   0  0  0  0  0  0  0  0  0  0  0  0
   -4.9579   -3.8403    0.0000 N   0  0  0  0  0  0  0  0  0  0  0  0
   -3.9542   -2.7256    0.0000 C   0  0  0  0  0  0  0  0  0  0  0  0
   -4.2660   -1.2584    0.0000 O   0  0  0  0  0  0  0  0  0  0  0  0
  1  2  1  0
  2  3  1  0
  2  4  1  0
  4  5  1  0
  5  6  1  0
  6  7  1  0
  7  8  2  0
  7  9  1  0
  9 10  1  0
 10 11  1  0
 11 12  1  0
 12 13  2  0
 13 14  1  0
 14 15  2  0
 15 16  1  0
 15 17  1  0
 17 18  2  0
 18 19  1  0
 19 20  2  0
 20 21  1  0
 21 22  2  0
 22 23  1  0
 23 24  2  0
 21 25  1  0
 25 26  2  0
 25 27  1  0
 27 28  1  0
 28 29  2  0
 24 11  1  0
 18 12  1  0
 24 19  1  0
 28 20  1  0
M  END
>  <Compound_ID>  (41) 
CHEMBL483801

>  <Active>  (41) 
1

>  <Smiles>  (41) 
CN(C)CCNC(=O)CCn1c2ccc(O)cc2c2c3c(ccc21)C(=O)NC3=O

>  <canonical_smi>  (41) 
CN(C)CCNC(=O)CCn1c2ccc(O)cc2c2c3c(ccc21)C(=O)NC3=O

>  <Set>  (41) 
G1 active

>  <Set_type>  (41) 
G1

>  <MW>  (41) 
394.43

>  <HBD>  (41) 
3

>  <HBA>  (41) 
5

>  <NRB>  (41) 
6

>  <NR>  (41) 
4

>  <NAR>  (41) 
3

>  <PSA>  (41) 
103.67

>  <Standard Type>  (41) 
nan

>  <Standard Relation>  (41) 
nan

>  <Standard Units>  (41) 
nan

>  <Standard Value>  (41) 
nan

>  <Assay ChEMBL ID>  (41) 
nan

>  <Assay Description>  (41) 
nan

>  <BAO Label>  (41) 
nan

$$$$

     RDKit          2D

 24 28  0  0  0  0  0  0  0  0999 V2000
   -4.8180   -6.5097    0.0000 O   0  0  0  0  0  0  0  0  0  0  0  0
   -4.2079   -5.1394    0.0000 C   0  0  0  0  0  0  0  0  0  0  0  0
   -4.9579   -3.8403    0.0000 N   0  0  0  0  0  0  0  0  0  0  0  0
   -3.9542   -2.7256    0.0000 C   0  0  0  0  0  0  0  0  0  0  0  0
   -4.2660   -1.2584    0.0000 O   0  0  0  0  0  0  0  0  0  0  0  0
   -2.5838   -3.3357    0.0000 C   0  0  0  0  0  0  0  0  0  0  0  0
   -2.7406   -4.8275    0.0000 C   0  0  0  0  0  0  0  0  0  0  0  0
   -1.5271   -5.7092    0.0000 C   0  0  0  0  0  0  0  0  0  0  0  0
   -1.6839   -7.2010    0.0000 C   0  0  0  0  0  0  0  0  0  0  0  0
   -0.5692   -8.2047    0.0000 C   0  0  0  0  0  0  0  0  0  0  0  0
   -1.1793   -9.5750    0.0000 C   0  0  0  0  0  0  0  0  0  0  0  0
   -2.6711   -9.4182    0.0000 C   0  0  0  0  0  0  0  0  0  0  0  0
   -2.9829   -7.9510    0.0000 N   0  0  0  0  0  0  0  0  0  0  0  0
   -0.1568   -5.0991    0.0000 C   0  0  0  0  0  0  0  0  0  0  0  0
   -0.0000   -3.6073    0.0000 C   0  0  0  0  0  0  0  0  0  0  0  0
    1.2135   -2.7256    0.0000 N   0  0  0  0  0  0  0  0  0  0  0  0
    0.7500   -1.2990    0.0000 C   0  0  0  0  0  0  0  0  0  0  0  0
    1.5000    0.0000    0.0000 C   0  0  0  0  0  0  0  0  0  0  0  0
    0.7500    1.2990    0.0000 C   0  0  0  0  0  0  0  0  0  0  0  0
   -0.7500    1.2990    0.0000 C   0  0  0  0  0  0  0  0  0  0  0  0
   -1.5000    2.5981    0.0000 O   0  0  0  0  0  0  0  0  0  0  0  0
   -1.5000    0.0000    0.0000 C   0  0  0  0  0  0  0  0  0  0  0  0
   -0.7500   -1.2990    0.0000 C   0  0  0  0  0  0  0  0  0  0  0  0
   -1.2135   -2.7256    0.0000 C   0  0  0  0  0  0  0  0  0  0  0  0
  1  2  2  0
  2  3  1  0
  3  4  1  0
  4  5  2  0
  4  6  1  0
  6  7  2  0
  7  8  1  0
  8  9  1  0
  9 10  2  0
 10 11  1  0
 11 12  2  0
 12 13  1  0
  8 14  2  0
 14 15  1  0
 15 16  1  0
 16 17  1  0
 17 18  2  0
 18 19  1  0
 19 20  2  0
 20 21  1  0
 20 22  1  0
 22 23  2  0
 23 24  1  0
  7  2  1  0
 13  9  1  0
 24 15  2  0
 24  6  1  0
 23 17  1  0
M  END
>  <Compound_ID>  (42) 
CHEMBL379149

>  <Active>  (42) 
1

>  <Smiles>  (42) 
O=C1NC(=O)c2c1c(-c1ccc[nH]1)cc1[nH]c3ccc(O)cc3c21

>  <canonical_smi>  (42) 
O=C1NC(=O)c2c1c(-c1ccc[nH]1)cc1[nH]c3ccc(O)cc3c21

>  <Set>  (42) 
G1 active

>  <Set_type>  (42) 
G1

>  <MW>  (42) 
317.3

>  <HBD>  (42) 
4

>  <HBA>  (42) 
3

>  <NRB>  (42) 
1

>  <NR>  (42) 
5

>  <NAR>  (42) 
4

>  <PSA>  (42) 
97.98

>  <Standard Type>  (42) 
nan

>  <Standard Relation>  (42) 
nan

>  <Standard Units>  (42) 
nan

>  <Standard Value>  (42) 
nan

>  <Assay ChEMBL ID>  (42) 
nan

>  <Assay Description>  (42) 
nan

>  <BAO Label>  (42) 
nan

$$$$

     RDKit          2D

 28 32  0  0  0  0  0  0  0  0999 V2000
    4.8180   -6.5097    0.0000 O   0  0  0  0  0  0  0  0  0  0  0  0
    4.2079   -5.1394    0.0000 C   0  0  0  0  0  0  0  0  0  0  0  0
    4.9579   -3.8403    0.0000 N   0  0  0  0  0  0  0  0  0  0  0  0
    3.9542   -2.7256    0.0000 C   0  0  0  0  0  0  0  0  0  0  0  0
    4.2660   -1.2584    0.0000 O   0  0  0  0  0  0  0  0  0  0  0  0
    2.5838   -3.3357    0.0000 C   0  0  0  0  0  0  0  0  0  0  0  0
    2.7406   -4.8275    0.0000 C   0  0  0  0  0  0  0  0  0  0  0  0
    1.5271   -5.7092    0.0000 C   0  0  0  0  0  0  0  0  0  0  0  0
    0.1568   -5.0991    0.0000 C   0  0  0  0  0  0  0  0  0  0  0  0
   -0.0000   -3.6073    0.0000 C   0  0  0  0  0  0  0  0  0  0  0  0
    1.2135   -2.7256    0.0000 C   0  0  0  0  0  0  0  0  0  0  0  0
    0.7500   -1.2990    0.0000 C   0  0  0  0  0  0  0  0  0  0  0  0
    1.5000    0.0000    0.0000 C   0  0  0  0  0  0  0  0  0  0  0  0
    0.7500    1.2990    0.0000 C   0  0  0  0  0  0  0  0  0  0  0  0
    1.5000    2.5981    0.0000 O   0  0  0  0  0  0  0  0  0  0  0  0
   -0.7500    1.2990    0.0000 C   0  0  0  0  0  0  0  0  0  0  0  0
   -1.5000    0.0000    0.0000 C   0  0  0  0  0  0  0  0  0  0  0  0
   -0.7500   -1.2990    0.0000 C   0  0  0  0  0  0  0  0  0  0  0  0
   -1.2135   -2.7256    0.0000 N   0  0  0  0  0  0  0  0  0  0  0  0
   -2.6401   -3.1891    0.0000 C   0  0  0  0  0  0  0  0  0  0  0  0
   -3.7548   -2.1855    0.0000 C   0  0  0  0  0  0  0  0  0  0  0  0
   -5.1814   -2.6490    0.0000 C   0  0  0  0  0  0  0  0  0  0  0  0
   -5.4933   -4.1162    0.0000 O   0  0  0  0  0  0  0  0  0  0  0  0
   -6.2961   -1.6453    0.0000 N   0  0  0  0  0  0  0  0  0  0  0  0
   -7.7634   -1.9571    0.0000 C   0  0  0  0  0  0  0  0  0  0  0  0
   -8.5134   -0.6581    0.0000 C   0  0  0  0  0  0  0  0  0  0  0  0
   -7.5097    0.4566    0.0000 N   0  0  0  0  0  0  0  0  0  0  0  0
   -6.1393   -0.1535    0.0000 C   0  0  0  0  0  0  0  0  0  0  0  0
  1  2  2  0
  2  3  1  0
  3  4  1  0
  4  5  2  0
  4  6  1  0
  6  7  2  0
  7  8  1  0
  8  9  2  0
  9 10  1  0
 10 11  2  0
 11 12  1  0
 12 13  2  0
 13 14  1  0
 14 15  1  0
 14 16  2  0
 16 17  1  0
 17 18  2  0
 18 19  1  0
 19 20  1  0
 20 21  1  0
 21 22  1  0
 22 23  2  0
 22 24  1  0
 24 25  1  0
 25 26  2  0
 26 27  1  0
 27 28  2  0
  7  2  1  0
 19 10  1  0
 28 24  1  0
 11  6  1  0
 18 12  1  0
M  END
>  <Compound_ID>  (43) 
CHEMBL488571

>  <Active>  (43) 
1

>  <Smiles>  (43) 
O=C1NC(=O)c2c1ccc1c2c2cc(O)ccc2n1CCC(=O)n1ccnc1

>  <canonical_smi>  (43) 
O=C1NC(=O)c2c1ccc1c2c2cc(O)ccc2n1CCC(=O)n1ccnc1

>  <Set>  (43) 
G1 active

>  <Set_type>  (43) 
G1

>  <MW>  (43) 
374.36

>  <HBD>  (43) 
2

>  <HBA>  (43) 
5

>  <NRB>  (43) 
3

>  <NR>  (43) 
5

>  <NAR>  (43) 
4

>  <PSA>  (43) 
106.22

>  <Standard Type>  (43) 
nan

>  <Standard Relation>  (43) 
nan

>  <Standard Units>  (43) 
nan

>  <Standard Value>  (43) 
nan

>  <Assay ChEMBL ID>  (43) 
nan

>  <Assay Description>  (43) 
nan

>  <BAO Label>  (43) 
nan

$$$$

     RDKit          2D

 30 34  0  0  0  0  0  0  0  0999 V2000
    4.8180   -6.5097    0.0000 O   0  0  0  0  0  0  0  0  0  0  0  0
    4.2079   -5.1394    0.0000 C   0  0  0  0  0  0  0  0  0  0  0  0
    4.9579   -3.8403    0.0000 N   0  0  0  0  0  0  0  0  0  0  0  0
    3.9542   -2.7256    0.0000 C   0  0  0  0  0  0  0  0  0  0  0  0
    4.2660   -1.2584    0.0000 O   0  0  0  0  0  0  0  0  0  0  0  0
    2.5838   -3.3357    0.0000 C   0  0  0  0  0  0  0  0  0  0  0  0
    2.7406   -4.8275    0.0000 C   0  0  0  0  0  0  0  0  0  0  0  0
    1.5271   -5.7092    0.0000 C   0  0  0  0  0  0  0  0  0  0  0  0
    0.1568   -5.0991    0.0000 C   0  0  0  0  0  0  0  0  0  0  0  0
   -0.0000   -3.6073    0.0000 C   0  0  0  0  0  0  0  0  0  0  0  0
    1.2135   -2.7256    0.0000 C   0  0  0  0  0  0  0  0  0  0  0  0
    0.7500   -1.2990    0.0000 C   0  0  0  0  0  0  0  0  0  0  0  0
    1.5000    0.0000    0.0000 C   0  0  0  0  0  0  0  0  0  0  0  0
    0.7500    1.2990    0.0000 C   0  0  0  0  0  0  0  0  0  0  0  0
    1.5000    2.5981    0.0000 O   0  0  0  0  0  0  0  0  0  0  0  0
   -0.7500    1.2990    0.0000 C   0  0  0  0  0  0  0  0  0  0  0  0
   -1.5000    0.0000    0.0000 C   0  0  0  0  0  0  0  0  0  0  0  0
   -0.7500   -1.2990    0.0000 C   0  0  0  0  0  0  0  0  0  0  0  0
   -1.2135   -2.7256    0.0000 N   0  0  0  0  0  0  0  0  0  0  0  0
   -2.6401   -3.1891    0.0000 C   0  0  0  0  0  0  0  0  0  0  0  0
   -3.7548   -2.1855    0.0000 C   0  0  0  0  0  0  0  0  0  0  0  0
   -5.1814   -2.6490    0.0000 C   0  0  0  0  0  0  0  0  0  0  0  0
   -6.2961   -1.6453    0.0000 C   0  0  0  0  0  0  0  0  0  0  0  0
   -5.9843   -0.1781    0.0000 O   0  0  0  0  0  0  0  0  0  0  0  0
   -7.7227   -2.1088    0.0000 N   0  0  0  0  0  0  0  0  0  0  0  0
   -8.8374   -1.1051    0.0000 C   0  0  0  0  0  0  0  0  0  0  0  0
  -10.2640   -1.5686    0.0000 C   0  0  0  0  0  0  0  0  0  0  0  0
  -10.5759   -3.0359    0.0000 O   0  0  0  0  0  0  0  0  0  0  0  0
   -9.4612   -4.0396    0.0000 C   0  0  0  0  0  0  0  0  0  0  0  0
   -8.0346   -3.5760    0.0000 C   0  0  0  0  0  0  0  0  0  0  0  0
  1  2  2  0
  2  3  1  0
  3  4  1  0
  4  5  2  0
  4  6  1  0
  6  7  2  0
  7  8  1  0
  8  9  2  0
  9 10  1  0
 10 11  2  0
 11 12  1  0
 12 13  2  0
 13 14  1  0
 14 15  1  0
 14 16  2  0
 16 17  1  0
 17 18  2  0
 18 19  1  0
 19 20  1  0
 20 21  1  0
 21 22  1  0
 22 23  1  0
 23 24  2  0
 23 25  1  0
 25 26  1  0
 26 27  1  0
 27 28  1  0
 28 29  1  0
 29 30  1  0
  7  2  1  0
 19 10  1  0
 30 25  1  0
 11  6  1  0
 18 12  1  0
M  END
>  <Compound_ID>  (44) 
CHEMBL520049

>  <Active>  (44) 
1

>  <Smiles>  (44) 
O=C1NC(=O)c2c1ccc1c2c2cc(O)ccc2n1CCCC(=O)N1CCOCC1

>  <canonical_smi>  (44) 
O=C1NC(=O)c2c1ccc1c2c2cc(O)ccc2n1CCCC(=O)N1CCOCC1

>  <Set>  (44) 
G1 active

>  <Set_type>  (44) 
G1

>  <MW>  (44) 
407.43

>  <HBD>  (44) 
2

>  <HBA>  (44) 
5

>  <NRB>  (44) 
4

>  <NR>  (44) 
5

>  <NAR>  (44) 
3

>  <PSA>  (44) 
100.87

>  <Standard Type>  (44) 
nan

>  <Standard Relation>  (44) 
nan

>  <Standard Units>  (44) 
nan

>  <Standard Value>  (44) 
nan

>  <Assay ChEMBL ID>  (44) 
nan

>  <Assay Description>  (44) 
nan

>  <BAO Label>  (44) 
nan

$$$$

     RDKit          2D

 34 39  0  0  0  0  0  0  0  0999 V2000
    4.8180   -6.5097    0.0000 O   0  0  0  0  0  0  0  0  0  0  0  0
    4.2079   -5.1394    0.0000 C   0  0  0  0  0  0  0  0  0  0  0  0
    4.9579   -3.8403    0.0000 N   0  0  0  0  0  0  0  0  0  0  0  0
    3.9542   -2.7256    0.0000 C   0  0  0  0  0  0  0  0  0  0  0  0
    4.2660   -1.2584    0.0000 O   0  0  0  0  0  0  0  0  0  0  0  0
    2.5838   -3.3357    0.0000 C   0  0  0  0  0  0  0  0  0  0  0  0
    2.7406   -4.8275    0.0000 C   0  0  0  0  0  0  0  0  0  0  0  0
    1.5271   -5.7092    0.0000 C   0  0  0  0  0  0  0  0  0  0  0  0
    1.6839   -7.2010    0.0000 C   0  0  0  0  0  0  0  0  0  0  0  0
    0.4704   -8.0826    0.0000 C   0  0  0  0  0  0  0  0  0  0  0  0
    0.6272   -9.5744    0.0000 C   0  0  0  0  0  0  0  0  0  0  0  0
    1.9975  -10.1845    0.0000 C   0  0  0  0  0  0  0  0  0  0  0  0
    3.2110   -9.3029    0.0000 C   0  0  0  0  0  0  0  0  0  0  0  0
    3.0542   -7.8111    0.0000 C   0  0  0  0  0  0  0  0  0  0  0  0
    0.1568   -5.0991    0.0000 C   0  0  0  0  0  0  0  0  0  0  0  0
   -0.0000   -3.6073    0.0000 C   0  0  0  0  0  0  0  0  0  0  0  0
    1.2135   -2.7256    0.0000 C   0  0  0  0  0  0  0  0  0  0  0  0
    0.7500   -1.2990    0.0000 C   0  0  0  0  0  0  0  0  0  0  0  0
    1.5000    0.0000    0.0000 C   0  0  0  0  0  0  0  0  0  0  0  0
    0.7500    1.2990    0.0000 C   0  0  0  0  0  0  0  0  0  0  0  0
    1.5000    2.5981    0.0000 O   0  0  0  0  0  0  0  0  0  0  0  0
   -0.7500    1.2990    0.0000 C   0  0  0  0  0  0  0  0  0  0  0  0
   -1.5000    0.0000    0.0000 C   0  0  0  0  0  0  0  0  0  0  0  0
   -0.7500   -1.2990    0.0000 C   0  0  0  0  0  0  0  0  0  0  0  0
   -1.2135   -2.7256    0.0000 N   0  0  0  0  0  0  0  0  0  0  0  0
   -2.6401   -3.1891    0.0000 C   0  0  0  0  0  0  0  0  0  0  0  0
   -3.7548   -2.1855    0.0000 C   0  0  0  0  0  0  0  0  0  0  0  0
   -5.1814   -2.6490    0.0000 C   0  0  0  0  0  0  0  0  0  0  0  0
   -6.2961   -1.6453    0.0000 N   0  0  0  0  0  0  0  0  0  0  0  0
   -5.9843   -0.1781    0.0000 C   0  0  0  0  0  0  0  0  0  0  0  0
   -7.0990    0.8256    0.0000 C   0  0  0  0  0  0  0  0  0  0  0  0
   -8.5256    0.3621    0.0000 O   0  0  0  0  0  0  0  0  0  0  0  0
   -8.8374   -1.1051    0.0000 C   0  0  0  0  0  0  0  0  0  0  0  0
   -7.7227   -2.1088    0.0000 C   0  0  0  0  0  0  0  0  0  0  0  0
  1  2  2  0
  2  3  1  0
  3  4  1  0
  4  5  2  0
  4  6  1  0
  6  7  2  0
  7  8  1  0
  8  9  1  0
  9 10  2  0
 10 11  1  0
 11 12  2  0
 12 13  1  0
 13 14  2  0
  8 15  2  0
 15 16  1  0
 16 17  2  0
 17 18  1  0
 18 19  2  0
 19 20  1  0
 20 21  1  0
 20 22  2  0
 22 23  1  0
 23 24  2  0
 24 25  1  0
 25 26  1  0
 26 27  1  0
 27 28  1  0
 28 29  1  0
 29 30  1  0
 30 31  1  0
 31 32  1  0
 32 33  1  0
 33 34  1  0
  7  2  1  0
 14  9  1  0
 25 16  1  0
 34 29  1  0
 17  6  1  0
 24 18  1  0
M  END
>  <Compound_ID>  (45) 
CHEMBL510668

>  <Active>  (45) 
1

>  <Smiles>  (45) 
O=C1NC(=O)c2c1c(-c1ccccc1)cc1c2c2cc(O)ccc2n1CCCN1CCOCC1

>  <canonical_smi>  (45) 
O=C1NC(=O)c2c1c(-c1ccccc1)cc1c2c2cc(O)ccc2n1CCCN1CCOCC1

>  <Set>  (45) 
G1 active

>  <Set_type>  (45) 
G1

>  <MW>  (45) 
455.51

>  <HBD>  (45) 
2

>  <HBA>  (45) 
5

>  <NRB>  (45) 
5

>  <NR>  (45) 
6

>  <NAR>  (45) 
4

>  <PSA>  (45) 
83.8

>  <Standard Type>  (45) 
nan

>  <Standard Relation>  (45) 
nan

>  <Standard Units>  (45) 
nan

>  <Standard Value>  (45) 
nan

>  <Assay ChEMBL ID>  (45) 
nan

>  <Assay Description>  (45) 
nan

>  <BAO Label>  (45) 
nan

$$$$

     RDKit          2D

 29 33  0  0  0  0  0  0  0  0999 V2000
    5.6260  -10.9888    0.0000 C   0  0  0  0  0  0  0  0  0  0  0  0
    5.3142   -9.5216    0.0000 N   0  0  0  0  0  0  0  0  0  0  0  0
    3.8876   -9.0580    0.0000 C   0  0  0  0  0  0  0  0  0  0  0  0
    3.5757   -7.5908    0.0000 C   0  0  0  0  0  0  0  0  0  0  0  0
    4.6904   -6.5871    0.0000 N   0  0  0  0  0  0  0  0  0  0  0  0
    4.3786   -5.1199    0.0000 C   0  0  0  0  0  0  0  0  0  0  0  0
    2.9520   -4.6564    0.0000 C   0  0  0  0  0  0  0  0  0  0  0  0
    2.6401   -3.1891    0.0000 C   0  0  0  0  0  0  0  0  0  0  0  0
    1.2135   -2.7256    0.0000 N   0  0  0  0  0  0  0  0  0  0  0  0
    0.7500   -1.2990    0.0000 C   0  0  0  0  0  0  0  0  0  0  0  0
    1.5000    0.0000    0.0000 C   0  0  0  0  0  0  0  0  0  0  0  0
    0.7500    1.2990    0.0000 C   0  0  0  0  0  0  0  0  0  0  0  0
   -0.7500    1.2990    0.0000 C   0  0  0  0  0  0  0  0  0  0  0  0
   -1.5000    2.5981    0.0000 O   0  0  0  0  0  0  0  0  0  0  0  0
   -1.5000    0.0000    0.0000 C   0  0  0  0  0  0  0  0  0  0  0  0
   -0.7500   -1.2990    0.0000 C   0  0  0  0  0  0  0  0  0  0  0  0
   -1.2135   -2.7256    0.0000 C   0  0  0  0  0  0  0  0  0  0  0  0
   -2.5838   -3.3357    0.0000 C   0  0  0  0  0  0  0  0  0  0  0  0
   -2.7406   -4.8275    0.0000 C   0  0  0  0  0  0  0  0  0  0  0  0
   -1.5271   -5.7092    0.0000 C   0  0  0  0  0  0  0  0  0  0  0  0
   -0.1568   -5.0991    0.0000 C   0  0  0  0  0  0  0  0  0  0  0  0
   -0.0000   -3.6073    0.0000 C   0  0  0  0  0  0  0  0  0  0  0  0
   -4.2079   -5.1394    0.0000 C   0  0  0  0  0  0  0  0  0  0  0  0
   -4.8180   -6.5097    0.0000 O   0  0  0  0  0  0  0  0  0  0  0  0
   -4.9579   -3.8403    0.0000 N   0  0  0  0  0  0  0  0  0  0  0  0
   -3.9542   -2.7256    0.0000 C   0  0  0  0  0  0  0  0  0  0  0  0
   -4.2660   -1.2584    0.0000 O   0  0  0  0  0  0  0  0  0  0  0  0
    6.1170   -7.0506    0.0000 C   0  0  0  0  0  0  0  0  0  0  0  0
    6.4289   -8.5179    0.0000 C   0  0  0  0  0  0  0  0  0  0  0  0
  1  2  1  0
  2  3  1  0
  3  4  1  0
  4  5  1  0
  5  6  1  0
  6  7  1  0
  7  8  1  0
  8  9  1  0
  9 10  1  0
 10 11  2  0
 11 12  1  0
 12 13  2  0
 13 14  1  0
 13 15  1  0
 15 16  2  0
 16 17  1  0
 17 18  2  0
 18 19  1  0
 19 20  2  0
 20 21  1  0
 21 22  2  0
 19 23  1  0
 23 24  2  0
 23 25  1  0
 25 26  1  0
 26 27  2  0
  5 28  1  0
 28 29  1  0
 29  2  1  0
 22  9  1  0
 16 10  1  0
 22 17  1  0
 26 18  1  0
M  END
>  <Compound_ID>  (46) 
CHEMBL483953

>  <Active>  (46) 
1

>  <Smiles>  (46) 
CN1CCN(CCCn2c3ccc(O)cc3c3c4c(ccc32)C(=O)NC4=O)CC1

>  <canonical_smi>  (46) 
CN1CCN(CCCn2c3ccc(O)cc3c3c4c(ccc32)C(=O)NC4=O)CC1

>  <Set>  (46) 
G1 active

>  <Set_type>  (46) 
G1

>  <MW>  (46) 
392.46

>  <HBD>  (46) 
2

>  <HBA>  (46) 
5

>  <NRB>  (46) 
4

>  <NR>  (46) 
5

>  <NAR>  (46) 
3

>  <PSA>  (46) 
77.81

>  <Standard Type>  (46) 
nan

>  <Standard Relation>  (46) 
nan

>  <Standard Units>  (46) 
nan

>  <Standard Value>  (46) 
nan

>  <Assay ChEMBL ID>  (46) 
nan

>  <Assay Description>  (46) 
nan

>  <BAO Label>  (46) 
nan

$$$$

     RDKit          2D

 25 29  0  0  0  0  0  0  0  0999 V2000
   -4.8180   -6.5097    0.0000 O   0  0  0  0  0  0  0  0  0  0  0  0
   -4.2079   -5.1394    0.0000 C   0  0  0  0  0  0  0  0  0  0  0  0
   -4.9579   -3.8403    0.0000 N   0  0  0  0  0  0  0  0  0  0  0  0
   -3.9542   -2.7256    0.0000 C   0  0  0  0  0  0  0  0  0  0  0  0
   -4.2660   -1.2584    0.0000 O   0  0  0  0  0  0  0  0  0  0  0  0
   -2.5838   -3.3357    0.0000 C   0  0  0  0  0  0  0  0  0  0  0  0
   -2.7406   -4.8275    0.0000 C   0  0  0  0  0  0  0  0  0  0  0  0
   -1.5271   -5.7092    0.0000 C   0  0  0  0  0  0  0  0  0  0  0  0
   -1.6839   -7.2010    0.0000 C   0  0  0  0  0  0  0  0  0  0  0  0
   -3.0542   -7.8111    0.0000 C   0  0  0  0  0  0  0  0  0  0  0  0
   -3.2110   -9.3029    0.0000 C   0  0  0  0  0  0  0  0  0  0  0  0
   -1.9975  -10.1845    0.0000 C   0  0  0  0  0  0  0  0  0  0  0  0
   -0.6272   -9.5744    0.0000 C   0  0  0  0  0  0  0  0  0  0  0  0
   -0.4704   -8.0826    0.0000 C   0  0  0  0  0  0  0  0  0  0  0  0
   -0.1568   -5.0991    0.0000 C   0  0  0  0  0  0  0  0  0  0  0  0
   -0.0000   -3.6073    0.0000 C   0  0  0  0  0  0  0  0  0  0  0  0
    1.2135   -2.7256    0.0000 O   0  0  0  0  0  0  0  0  0  0  0  0
    0.7500   -1.2990    0.0000 C   0  0  0  0  0  0  0  0  0  0  0  0
    1.5000    0.0000    0.0000 C   0  0  0  0  0  0  0  0  0  0  0  0
    0.7500    1.2990    0.0000 C   0  0  0  0  0  0  0  0  0  0  0  0
   -0.7500    1.2990    0.0000 C   0  0  0  0  0  0  0  0  0  0  0  0
   -1.5000    2.5981    0.0000 O   0  0  0  0  0  0  0  0  0  0  0  0
   -1.5000    0.0000    0.0000 C   0  0  0  0  0  0  0  0  0  0  0  0
   -0.7500   -1.2990    0.0000 C   0  0  0  0  0  0  0  0  0  0  0  0
   -1.2135   -2.7256    0.0000 C   0  0  0  0  0  0  0  0  0  0  0  0
  1  2  2  0
  2  3  1  0
  3  4  1  0
  4  5  2  0
  4  6  1  0
  6  7  2  0
  7  8  1  0
  8  9  1  0
  9 10  2  0
 10 11  1  0
 11 12  2  0
 12 13  1  0
 13 14  2  0
  8 15  2  0
 15 16  1  0
 16 17  1  0
 17 18  1  0
 18 19  2  0
 19 20  1  0
 20 21  2  0
 21 22  1  0
 21 23  1  0
 23 24  2  0
 24 25  1  0
  7  2  1  0
 14  9  1  0
 25 16  2  0
 25  6  1  0
 24 18  1  0
M  END
>  <Compound_ID>  (47) 
CHEMBL441695

>  <Active>  (47) 
1

>  <Smiles>  (47) 
O=C1NC(=O)c2c1c(-c1ccccc1)cc1oc3ccc(O)cc3c21

>  <canonical_smi>  (47) 
O=C1NC(=O)c2c1c(-c1ccccc1)cc1oc3ccc(O)cc3c21

>  <Set>  (47) 
G1 active

>  <Set_type>  (47) 
G1

>  <MW>  (47) 
329.31

>  <HBD>  (47) 
2

>  <HBA>  (47) 
4

>  <NRB>  (47) 
1

>  <NR>  (47) 
5

>  <NAR>  (47) 
4

>  <PSA>  (47) 
79.54

>  <Standard Type>  (47) 
nan

>  <Standard Relation>  (47) 
nan

>  <Standard Units>  (47) 
nan

>  <Standard Value>  (47) 
nan

>  <Assay ChEMBL ID>  (47) 
nan

>  <Assay Description>  (47) 
nan

>  <BAO Label>  (47) 
nan

$$$$

     RDKit          2D

 31 36  0  0  0  0  0  0  0  0999 V2000
   -4.8180   -6.5097    0.0000 O   0  0  0  0  0  0  0  0  0  0  0  0
   -4.2079   -5.1394    0.0000 C   0  0  0  0  0  0  0  0  0  0  0  0
   -4.9579   -3.8403    0.0000 N   0  0  0  0  0  0  0  0  0  0  0  0
   -3.9542   -2.7256    0.0000 C   0  0  0  0  0  0  0  0  0  0  0  0
   -4.2660   -1.2584    0.0000 O   0  0  0  0  0  0  0  0  0  0  0  0
   -2.5838   -3.3357    0.0000 C   0  0  0  0  0  0  0  0  0  0  0  0
   -2.7406   -4.8275    0.0000 C   0  0  0  0  0  0  0  0  0  0  0  0
   -1.5271   -5.7092    0.0000 C   0  0  0  0  0  0  0  0  0  0  0  0
   -1.6839   -7.2010    0.0000 C   0  0  0  0  0  0  0  0  0  0  0  0
   -3.0542   -7.8111    0.0000 C   0  0  0  0  0  0  0  0  0  0  0  0
   -3.2110   -9.3029    0.0000 C   0  0  0  0  0  0  0  0  0  0  0  0
   -1.9975  -10.1845    0.0000 C   0  0  0  0  0  0  0  0  0  0  0  0
   -0.6272   -9.5744    0.0000 C   0  0  0  0  0  0  0  0  0  0  0  0
   -0.4704   -8.0826    0.0000 C   0  0  0  0  0  0  0  0  0  0  0  0
    0.8999   -7.4725    0.0000 C   0  0  0  0  0  0  0  0  0  0  0  0
    2.1135   -8.3542    0.0000 C   0  0  0  0  0  0  0  0  0  0  0  0
    3.4838   -7.7441    0.0000 C   0  0  0  0  0  0  0  0  0  0  0  0
    3.6406   -6.2523    0.0000 C   0  0  0  0  0  0  0  0  0  0  0  0
    2.4271   -5.3707    0.0000 C   0  0  0  0  0  0  0  0  0  0  0  0
    1.0567   -5.9808    0.0000 C   0  0  0  0  0  0  0  0  0  0  0  0
   -0.1568   -5.0991    0.0000 C   0  0  0  0  0  0  0  0  0  0  0  0
   -0.0000   -3.6073    0.0000 C   0  0  0  0  0  0  0  0  0  0  0  0
    1.2135   -2.7256    0.0000 N   0  0  0  0  0  0  0  0  0  0  0  0
    0.7500   -1.2990    0.0000 C   0  0  0  0  0  0  0  0  0  0  0  0
    1.5000    0.0000    0.0000 C   0  0  0  0  0  0  0  0  0  0  0  0
    0.7500    1.2990    0.0000 C   0  0  0  0  0  0  0  0  0  0  0  0
   -0.7500    1.2990    0.0000 C   0  0  0  0  0  0  0  0  0  0  0  0
   -1.5000    2.5981    0.0000 O   0  0  0  0  0  0  0  0  0  0  0  0
   -1.5000    0.0000    0.0000 C   0  0  0  0  0  0  0  0  0  0  0  0
   -0.7500   -1.2990    0.0000 C   0  0  0  0  0  0  0  0  0  0  0  0
   -1.2135   -2.7256    0.0000 C   0  0  0  0  0  0  0  0  0  0  0  0
  1  2  2  0
  2  3  1  0
  3  4  1  0
  4  5  2  0
  4  6  1  0
  6  7  2  0
  7  8  1  0
  8  9  1  0
  9 10  2  0
 10 11  1  0
 11 12  2  0
 12 13  1  0
 13 14  2  0
 14 15  1  0
 15 16  2  0
 16 17  1  0
 17 18  2  0
 18 19  1  0
 19 20  2  0
  8 21  2  0
 21 22  1  0
 22 23  1  0
 23 24  1  0
 24 25  2  0
 25 26  1  0
 26 27  2  0
 27 28  1  0
 27 29  1  0
 29 30  2  0
 30 31  1  0
  7  2  1  0
 14  9  1  0
 20 15  1  0
 31 22  2  0
 31  6  1  0
 30 24  1  0
M  END
>  <Compound_ID>  (48) 
CHEMBL379346

>  <Active>  (48) 
1

>  <Smiles>  (48) 
O=C1NC(=O)c2c1c(-c1ccccc1-c1ccccc1)cc1[nH]c3ccc(O)cc3c21

>  <canonical_smi>  (48) 
O=C1NC(=O)c2c1c(-c1ccccc1-c1ccccc1)cc1[nH]c3ccc(O)cc3c21

>  <Set>  (48) 
G1 active

>  <Set_type>  (48) 
G1

>  <MW>  (48) 
404.43

>  <HBD>  (48) 
3

>  <HBA>  (48) 
3

>  <NRB>  (48) 
2

>  <NR>  (48) 
6

>  <NAR>  (48) 
5

>  <PSA>  (48) 
82.19

>  <Standard Type>  (48) 
nan

>  <Standard Relation>  (48) 
nan

>  <Standard Units>  (48) 
nan

>  <Standard Value>  (48) 
nan

>  <Assay ChEMBL ID>  (48) 
nan

>  <Assay Description>  (48) 
nan

>  <BAO Label>  (48) 
nan

$$$$

     RDKit          2D

 33 35  0  0  0  0  0  0  0  0999 V2000
    5.2500   -1.2990    0.0000 C   0  0  0  0  0  0  0  0  0  0  0  0
    3.7500   -1.2990    0.0000 C   0  0  0  0  0  0  0  0  0  0  0  0
    3.0000    0.0000    0.0000 O   0  0  0  0  0  0  0  0  0  0  0  0
    1.5000    0.0000    0.0000 C   0  0  0  0  0  0  0  0  0  0  0  0
    0.7500   -1.2990    0.0000 C   0  0  0  0  0  0  0  0  0  0  0  0
   -0.7500   -1.2990    0.0000 C   0  0  0  0  0  0  0  0  0  0  0  0
   -1.5000   -2.5981    0.0000 N   0  0  0  0  0  0  0  0  0  0  0  0
   -3.0000   -2.5981    0.0000 C   0  0  0  0  0  0  0  0  0  0  0  0
   -3.7500   -1.2990    0.0000 C   0  0  0  0  0  0  0  0  0  0  0  0
   -5.2500   -1.2990    0.0000 C   0  0  0  0  0  0  0  0  0  0  0  0
   -6.7500   -1.2990    0.0000 N   0  0  0  0  0  0  0  0  0  0  0  0
   -3.0000    0.0000    0.0000 C   0  0  0  0  0  0  0  0  0  0  0  0
   -3.7500    1.2990    0.0000 N   0  0  0  0  0  0  0  0  0  0  0  0
   -3.0000    2.5981    0.0000 C   0  0  0  0  0  0  0  0  0  0  0  0
   -1.5000    2.5981    0.0000 C   0  0  0  0  0  0  0  0  0  0  0  0
   -0.7500    3.8971    0.0000 C   0  0  0  0  0  0  0  0  0  0  0  0
   -1.5000    5.1962    0.0000 C   0  0  0  0  0  0  0  0  0  0  0  0
   -0.7500    6.4952    0.0000 F   0  0  0  0  0  0  0  0  0  0  0  0
   -3.0000    5.1962    0.0000 C   0  0  0  0  0  0  0  0  0  0  0  0
   -3.7500    6.4952    0.0000 Cl  0  0  0  0  0  0  0  0  0  0  0  0
   -3.7500    3.8971    0.0000 C   0  0  0  0  0  0  0  0  0  0  0  0
   -1.5000    0.0000    0.0000 C   0  0  0  0  0  0  0  0  0  0  0  0
   -0.7500    1.2990    0.0000 C   0  0  0  0  0  0  0  0  0  0  0  0
    0.7500    1.2990    0.0000 C   0  0  0  0  0  0  0  0  0  0  0  0
    1.5000    2.5981    0.0000 N   0  0  0  0  0  0  0  0  0  0  0  0
    3.0000    2.5981    0.0000 C   0  0  0  0  0  0  0  0  0  0  0  0
    3.7500    1.2990    0.0000 O   0  0  0  0  0  0  0  0  0  0  0  0
    3.7500    3.8971    0.0000 C   0  0  0  0  0  0  0  0  0  0  0  0
    5.2500    3.8971    0.0000 C   0  0  0  0  0  0  0  0  0  0  0  0
    6.0000    5.1962    0.0000 C   0  0  0  0  0  0  0  0  0  0  0  0
    7.5000    5.1962    0.0000 N   0  0  0  0  0  0  0  0  0  0  0  0
    8.2500    6.4952    0.0000 C   0  0  0  0  0  0  0  0  0  0  0  0
    8.2500    3.8971    0.0000 C   0  0  0  0  0  0  0  0  0  0  0  0
  1  2  1  0
  2  3  1  0
  3  4  1  0
  4  5  2  0
  5  6  1  0
  6  7  2  0
  7  8  1  0
  8  9  2  0
  9 10  1  0
 10 11  3  0
  9 12  1  0
 12 13  1  0
 13 14  1  0
 14 15  2  0
 15 16  1  0
 16 17  2  0
 17 18  1  0
 17 19  1  0
 19 20  1  0
 19 21  2  0
 12 22  2  0
 22 23  1  0
 23 24  2  0
 24 25  1  0
 25 26  1  0
 26 27  2  0
 26 28  1  0
 28 29  2  0
 29 30  1  0
 30 31  1  0
 31 32  1  0
 31 33  1  0
 24  4  1  0
 22  6  1  0
 21 14  1  0
M  END
>  <Compound_ID>  (49) 
CHEMBL607707

>  <Active>  (49) 
1

>  <Smiles>  (49) 
CCOc1cc2ncc(C#N)c(Nc3ccc(F)c(Cl)c3)c2cc1NC(=O)/C=C/CN(C)C

>  <canonical_smi>  (49) 
CCOc1cc2ncc(C#N)c(Nc3ccc(F)c(Cl)c3)c2cc1NC(=O)/C=C/CN(C)C

>  <Set>  (49) 
G1 active

>  <Set_type>  (49) 
G1

>  <MW>  (49) 
467.93

>  <HBD>  (49) 
2

>  <HBA>  (49) 
6

>  <NRB>  (49) 
8

>  <NR>  (49) 
3

>  <NAR>  (49) 
3

>  <PSA>  (49) 
90.28

>  <Standard Type>  (49) 
nan

>  <Standard Relation>  (49) 
nan

>  <Standard Units>  (49) 
nan

>  <Standard Value>  (49) 
nan

>  <Assay ChEMBL ID>  (49) 
nan

>  <Assay Description>  (49) 
nan

>  <BAO Label>  (49) 
nan

$$$$

     RDKit          2D

 25 29  0  0  0  0  0  0  0  0999 V2000
   -4.8180   -6.5097    0.0000 O   0  0  0  0  0  0  0  0  0  0  0  0
   -4.2079   -5.1394    0.0000 C   0  0  0  0  0  0  0  0  0  0  0  0
   -4.9579   -3.8403    0.0000 N   0  0  0  0  0  0  0  0  0  0  0  0
   -3.9542   -2.7256    0.0000 C   0  0  0  0  0  0  0  0  0  0  0  0
   -4.2660   -1.2584    0.0000 O   0  0  0  0  0  0  0  0  0  0  0  0
   -2.5838   -3.3357    0.0000 C   0  0  0  0  0  0  0  0  0  0  0  0
   -2.7406   -4.8275    0.0000 C   0  0  0  0  0  0  0  0  0  0  0  0
   -1.5271   -5.7092    0.0000 C   0  0  0  0  0  0  0  0  0  0  0  0
   -1.6839   -7.2010    0.0000 C   0  0  0  0  0  0  0  0  0  0  0  0
   -3.0542   -7.8111    0.0000 C   0  0  0  0  0  0  0  0  0  0  0  0
   -3.2110   -9.3029    0.0000 C   0  0  0  0  0  0  0  0  0  0  0  0
   -1.9975  -10.1845    0.0000 N   0  0  0  0  0  0  0  0  0  0  0  0
   -0.6272   -9.5744    0.0000 C   0  0  0  0  0  0  0  0  0  0  0  0
   -0.4704   -8.0826    0.0000 C   0  0  0  0  0  0  0  0  0  0  0  0
   -0.1568   -5.0991    0.0000 C   0  0  0  0  0  0  0  0  0  0  0  0
   -0.0000   -3.6073    0.0000 C   0  0  0  0  0  0  0  0  0  0  0  0
    1.2135   -2.7256    0.0000 N   0  0  0  0  0  0  0  0  0  0  0  0
    0.7500   -1.2990    0.0000 C   0  0  0  0  0  0  0  0  0  0  0  0
    1.5000    0.0000    0.0000 C   0  0  0  0  0  0  0  0  0  0  0  0
    0.7500    1.2990    0.0000 C   0  0  0  0  0  0  0  0  0  0  0  0
   -0.7500    1.2990    0.0000 C   0  0  0  0  0  0  0  0  0  0  0  0
   -1.5000    2.5981    0.0000 O   0  0  0  0  0  0  0  0  0  0  0  0
   -1.5000    0.0000    0.0000 C   0  0  0  0  0  0  0  0  0  0  0  0
   -0.7500   -1.2990    0.0000 C   0  0  0  0  0  0  0  0  0  0  0  0
   -1.2135   -2.7256    0.0000 C   0  0  0  0  0  0  0  0  0  0  0  0
  1  2  2  0
  2  3  1  0
  3  4  1  0
  4  5  2  0
  4  6  1  0
  6  7  2  0
  7  8  1  0
  8  9  1  0
  9 10  2  0
 10 11  1  0
 11 12  2  0
 12 13  1  0
 13 14  2  0
  8 15  2  0
 15 16  1  0
 16 17  1  0
 17 18  1  0
 18 19  2  0
 19 20  1  0
 20 21  2  0
 21 22  1  0
 21 23  1  0
 23 24  2  0
 24 25  1  0
  7  2  1  0
 14  9  1  0
 25 16  2  0
 25  6  1  0
 24 18  1  0
M  END
>  <Compound_ID>  (50) 
CHEMBL378347

>  <Active>  (50) 
1

>  <Smiles>  (50) 
O=C1NC(=O)c2c1c(-c1ccncc1)cc1[nH]c3ccc(O)cc3c21

>  <canonical_smi>  (50) 
O=C1NC(=O)c2c1c(-c1ccncc1)cc1[nH]c3ccc(O)cc3c21

>  <Set>  (50) 
G1 active

>  <Set_type>  (50) 
G1

>  <MW>  (50) 
329.32

>  <HBD>  (50) 
3

>  <HBA>  (50) 
4

>  <NRB>  (50) 
1

>  <NR>  (50) 
5

>  <NAR>  (50) 
4

>  <PSA>  (50) 
95.08

>  <Standard Type>  (50) 
nan

>  <Standard Relation>  (50) 
nan

>  <Standard Units>  (50) 
nan

>  <Standard Value>  (50) 
nan

>  <Assay ChEMBL ID>  (50) 
nan

>  <Assay Description>  (50) 
nan

>  <BAO Label>  (50) 
nan

$$$$

     RDKit          2D

 30 34  0  0  0  0  0  0  0  0999 V2000
    4.9032   -6.2965    0.0000 O   0  0  0  0  0  0  0  0  0  0  0  0
    4.2079   -5.1394    0.0000 C   0  0  0  0  0  0  0  0  0  0  0  0
    4.9579   -3.8403    0.0000 N   0  0  0  0  0  0  0  0  0  0  0  0
    3.9542   -2.7256    0.0000 C   0  0  0  0  0  0  0  0  0  0  0  0
    4.2660   -1.2584    0.0000 O   0  0  0  0  0  0  0  0  0  0  0  0
    2.5838   -3.3357    0.0000 C   0  0  0  0  0  0  0  0  0  0  0  0
    2.7406   -4.8275    0.0000 C   0  0  0  0  0  0  0  0  0  0  0  0
    1.5271   -5.7092    0.0000 C   0  0  0  0  0  0  0  0  0  0  0  0
    1.6839   -7.2010    0.0000 C   0  0  0  0  0  0  0  0  0  0  0  0
    0.4704   -8.0826    0.0000 C   0  0  0  0  0  0  0  0  0  0  0  0
   -0.8999   -7.4725    0.0000 Cl  0  0  0  0  0  0  0  0  0  0  0  0
    0.6272   -9.5744    0.0000 C   0  0  0  0  0  0  0  0  0  0  0  0
    1.9975  -10.1845    0.0000 C   0  0  0  0  0  0  0  0  0  0  0  0
    3.2110   -9.3029    0.0000 C   0  0  0  0  0  0  0  0  0  0  0  0
    3.0542   -7.8111    0.0000 C   0  0  0  0  0  0  0  0  0  0  0  0
    4.2350   -7.1566    0.0000 Cl  0  0  0  0  0  0  0  0  0  0  0  0
    0.1568   -5.0991    0.0000 C   0  0  0  0  0  0  0  0  0  0  0  0
    0.0000   -3.6073    0.0000 C   0  0  0  0  0  0  0  0  0  0  0  0
    1.2135   -2.7256    0.0000 C   0  0  0  0  0  0  0  0  0  0  0  0
    0.7500   -1.2990    0.0000 C   0  0  0  0  0  0  0  0  0  0  0  0
    1.5000    0.0000    0.0000 C   0  0  0  0  0  0  0  0  0  0  0  0
    0.7500    1.2990    0.0000 C   0  0  0  0  0  0  0  0  0  0  0  0
    1.5000    2.5981    0.0000 O   0  0  0  0  0  0  0  0  0  0  0  0
   -0.7500    1.2990    0.0000 C   0  0  0  0  0  0  0  0  0  0  0  0
   -1.5000    0.0000    0.0000 C   0  0  0  0  0  0  0  0  0  0  0  0
   -0.7500   -1.2990    0.0000 C   0  0  0  0  0  0  0  0  0  0  0  0
   -1.2135   -2.7256    0.0000 N   0  0  0  0  0  0  0  0  0  0  0  0
   -2.6401   -3.1891    0.0000 C   0  0  0  0  0  0  0  0  0  0  0  0
   -3.7548   -2.1855    0.0000 C   0  0  0  0  0  0  0  0  0  0  0  0
   -5.1814   -2.6490    0.0000 O   0  0  0  0  0  0  0  0  0  0  0  0
  1  2  2  0
  2  3  1  0
  3  4  1  0
  4  5  2  0
  4  6  1  0
  6  7  2  0
  7  8  1  0
  8  9  1  0
  9 10  2  0
 10 11  1  0
 10 12  1  0
 12 13  2  0
 13 14  1  0
 14 15  2  0
 15 16  1  0
  8 17  2  0
 17 18  1  0
 18 19  2  0
 19 20  1  0
 20 21  2  0
 21 22  1  0
 22 23  1  0
 22 24  2  0
 24 25  1  0
 25 26  2  0
 26 27  1  0
 27 28  1  0
 28 29  1  0
 29 30  1  0
  7  2  1  0
 15  9  1  0
 27 18  1  0
 19  6  1  0
 26 20  1  0
M  END
>  <Compound_ID>  (51) 
CHEMBL471157

>  <Active>  (51) 
1

>  <Smiles>  (51) 
O=C1NC(=O)c2c1c(-c1c(Cl)cccc1Cl)cc1c2c2cc(O)ccc2n1CCO

>  <canonical_smi>  (51) 
O=C1NC(=O)c2c1c(-c1c(Cl)cccc1Cl)cc1c2c2cc(O)ccc2n1CCO

>  <Set>  (51) 
G2 active

>  <Set_type>  (51) 
Train

>  <MW>  (51) 
441.27

>  <HBD>  (51) 
3

>  <HBA>  (51) 
4

>  <NRB>  (51) 
3

>  <NR>  (51) 
5

>  <NAR>  (51) 
4

>  <PSA>  (51) 
91.56

>  <Standard Type>  (51) 
nan

>  <Standard Relation>  (51) 
nan

>  <Standard Units>  (51) 
nan

>  <Standard Value>  (51) 
nan

>  <Assay ChEMBL ID>  (51) 
nan

>  <Assay Description>  (51) 
nan

>  <BAO Label>  (51) 
nan

$$$$

     RDKit          2D

 31 35  0  0  0  0  0  0  0  0999 V2000
    5.4933   -4.1162    0.0000 O   0  0  0  0  0  0  0  0  0  0  0  0
    4.3786   -5.1199    0.0000 C   0  0  0  0  0  0  0  0  0  0  0  0
    4.6904   -6.5871    0.0000 O   0  0  0  0  0  0  0  0  0  0  0  0
    2.9520   -4.6564    0.0000 C   0  0  0  0  0  0  0  0  0  0  0  0
    2.6401   -3.1891    0.0000 C   0  0  0  0  0  0  0  0  0  0  0  0
    1.2135   -2.7256    0.0000 N   0  0  0  0  0  0  0  0  0  0  0  0
    0.7500   -1.2990    0.0000 C   0  0  0  0  0  0  0  0  0  0  0  0
    1.5000    0.0000    0.0000 C   0  0  0  0  0  0  0  0  0  0  0  0
    0.7500    1.2990    0.0000 C   0  0  0  0  0  0  0  0  0  0  0  0
   -0.7500    1.2990    0.0000 C   0  0  0  0  0  0  0  0  0  0  0  0
   -1.5000    2.5981    0.0000 O   0  0  0  0  0  0  0  0  0  0  0  0
   -1.5000    0.0000    0.0000 C   0  0  0  0  0  0  0  0  0  0  0  0
   -0.7500   -1.2990    0.0000 C   0  0  0  0  0  0  0  0  0  0  0  0
   -1.2135   -2.7256    0.0000 C   0  0  0  0  0  0  0  0  0  0  0  0
   -2.5838   -3.3357    0.0000 C   0  0  0  0  0  0  0  0  0  0  0  0
   -2.7406   -4.8275    0.0000 C   0  0  0  0  0  0  0  0  0  0  0  0
   -1.5271   -5.7092    0.0000 C   0  0  0  0  0  0  0  0  0  0  0  0
   -1.6839   -7.2010    0.0000 C   0  0  0  0  0  0  0  0  0  0  0  0
   -3.0542   -7.8111    0.0000 C   0  0  0  0  0  0  0  0  0  0  0  0
   -3.2110   -9.3029    0.0000 C   0  0  0  0  0  0  0  0  0  0  0  0
   -1.9975  -10.1845    0.0000 C   0  0  0  0  0  0  0  0  0  0  0  0
   -0.6272   -9.5744    0.0000 C   0  0  0  0  0  0  0  0  0  0  0  0
   -0.4704   -8.0826    0.0000 C   0  0  0  0  0  0  0  0  0  0  0  0
    0.8999   -7.4725    0.0000 Cl  0  0  0  0  0  0  0  0  0  0  0  0
   -0.1568   -5.0991    0.0000 C   0  0  0  0  0  0  0  0  0  0  0  0
   -0.0000   -3.6073    0.0000 C   0  0  0  0  0  0  0  0  0  0  0  0
   -4.2079   -5.1394    0.0000 C   0  0  0  0  0  0  0  0  0  0  0  0
   -4.8180   -6.5097    0.0000 O   0  0  0  0  0  0  0  0  0  0  0  0
   -4.9579   -3.8403    0.0000 N   0  0  0  0  0  0  0  0  0  0  0  0
   -3.9542   -2.7256    0.0000 C   0  0  0  0  0  0  0  0  0  0  0  0
   -4.2660   -1.2584    0.0000 O   0  0  0  0  0  0  0  0  0  0  0  0
  1  2  2  0
  2  3  1  0
  2  4  1  0
  4  5  1  0
  5  6  1  0
  6  7  1  0
  7  8  2  0
  8  9  1  0
  9 10  2  0
 10 11  1  0
 10 12  1  0
 12 13  2  0
 13 14  1  0
 14 15  2  0
 15 16  1  0
 16 17  2  0
 17 18  1  0
 18 19  2  0
 19 20  1  0
 20 21  2  0
 21 22  1  0
 22 23  2  0
 23 24  1  0
 17 25  1  0
 25 26  2  0
 16 27  1  0
 27 28  2  0
 27 29  1  0
 29 30  1  0
 30 31  2  0
 26  6  1  0
 13  7  1  0
 26 14  1  0
 30 15  1  0
 23 18  1  0
M  END
>  <Compound_ID>  (52) 
CHEMBL459889

>  <Active>  (52) 
1

>  <Smiles>  (52) 
O=C(O)CCn1c2ccc(O)cc2c2c3c(c(-c4ccccc4Cl)cc21)C(=O)NC3=O

>  <canonical_smi>  (52) 
O=C(O)CCn1c2ccc(O)cc2c2c3c(c(-c4ccccc4Cl)cc21)C(=O)NC3=O

>  <Set>  (52) 
G2 active

>  <Set_type>  (52) 
Train

>  <MW>  (52) 
434.84

>  <HBD>  (52) 
3

>  <HBA>  (52) 
5

>  <NRB>  (52) 
4

>  <NR>  (52) 
5

>  <NAR>  (52) 
4

>  <PSA>  (52) 
108.63

>  <Standard Type>  (52) 
nan

>  <Standard Relation>  (52) 
nan

>  <Standard Units>  (52) 
nan

>  <Standard Value>  (52) 
nan

>  <Assay ChEMBL ID>  (52) 
nan

>  <Assay Description>  (52) 
nan

>  <BAO Label>  (52) 
nan

$$$$

     RDKit          2D

 37 42  0  0  0  0  0  0  0  0999 V2000
    2.6401   -3.1891    0.0000 C   0  0  0  0  0  0  0  0  0  0  0  0
    1.2135   -2.7256    0.0000 N   0  0  0  0  0  0  0  0  0  0  0  0
    0.7500   -1.2990    0.0000 C   0  0  0  0  0  0  0  0  0  0  0  0
    1.5000    0.0000    0.0000 C   0  0  0  0  0  0  0  0  0  0  0  0
    0.7500    1.2990    0.0000 C   0  0  0  0  0  0  0  0  0  0  0  0
    1.5000    2.5981    0.0000 C   0  0  0  0  0  0  0  0  0  0  0  0
    0.7500    3.8971    0.0000 O   0  0  0  0  0  0  0  0  0  0  0  0
    3.0000    2.5981    0.0000 N   0  0  0  0  0  0  0  0  0  0  0  0
    3.7500    3.8971    0.0000 C   0  0  0  0  0  0  0  0  0  0  0  0
    5.2500    3.8971    0.0000 C   0  0  0  0  0  0  0  0  0  0  0  0
    6.0000    5.1962    0.0000 N   0  0  0  0  0  0  0  0  0  0  0  0
    5.3899    6.5665    0.0000 C   0  0  0  0  0  0  0  0  0  0  0  0
    6.5046    7.5702    0.0000 C   0  0  0  0  0  0  0  0  0  0  0  0
    7.8037    6.8202    0.0000 C   0  0  0  0  0  0  0  0  0  0  0  0
    7.4918    5.3529    0.0000 C   0  0  0  0  0  0  0  0  0  0  0  0
   -0.7500    1.2990    0.0000 C   0  0  0  0  0  0  0  0  0  0  0  0
   -1.5000    2.5981    0.0000 O   0  0  0  0  0  0  0  0  0  0  0  0
   -1.5000    0.0000    0.0000 C   0  0  0  0  0  0  0  0  0  0  0  0
   -0.7500   -1.2990    0.0000 C   0  0  0  0  0  0  0  0  0  0  0  0
   -1.2135   -2.7256    0.0000 C   0  0  0  0  0  0  0  0  0  0  0  0
   -2.5838   -3.3357    0.0000 C   0  0  0  0  0  0  0  0  0  0  0  0
   -2.7406   -4.8275    0.0000 C   0  0  0  0  0  0  0  0  0  0  0  0
   -1.5271   -5.7092    0.0000 C   0  0  0  0  0  0  0  0  0  0  0  0
   -1.6839   -7.2010    0.0000 C   0  0  0  0  0  0  0  0  0  0  0  0
   -3.0542   -7.8111    0.0000 C   0  0  0  0  0  0  0  0  0  0  0  0
   -3.2110   -9.3029    0.0000 C   0  0  0  0  0  0  0  0  0  0  0  0
   -1.9975  -10.1845    0.0000 C   0  0  0  0  0  0  0  0  0  0  0  0
   -0.6272   -9.5744    0.0000 C   0  0  0  0  0  0  0  0  0  0  0  0
   -0.4704   -8.0826    0.0000 C   0  0  0  0  0  0  0  0  0  0  0  0
    0.8999   -7.4725    0.0000 Cl  0  0  0  0  0  0  0  0  0  0  0  0
   -0.1568   -5.0991    0.0000 C   0  0  0  0  0  0  0  0  0  0  0  0
   -0.0000   -3.6073    0.0000 C   0  0  0  0  0  0  0  0  0  0  0  0
   -4.2079   -5.1394    0.0000 C   0  0  0  0  0  0  0  0  0  0  0  0
   -4.8180   -6.5097    0.0000 O   0  0  0  0  0  0  0  0  0  0  0  0
   -4.9579   -3.8403    0.0000 N   0  0  0  0  0  0  0  0  0  0  0  0
   -3.9542   -2.7256    0.0000 C   0  0  0  0  0  0  0  0  0  0  0  0
   -4.2660   -1.2584    0.0000 O   0  0  0  0  0  0  0  0  0  0  0  0
  1  2  1  0
  2  3  1  0
  3  4  2  0
  4  5  1  0
  5  6  1  0
  6  7  2  0
  6  8  1  0
  8  9  1  0
  9 10  1  0
 10 11  1  0
 11 12  1  0
 12 13  1  0
 13 14  1  0
 14 15  1  0
  5 16  2  0
 16 17  1  0
 16 18  1  0
 18 19  2  0
 19 20  1  0
 20 21  2  0
 21 22  1  0
 22 23  2  0
 23 24  1  0
 24 25  2  0
 25 26  1  0
 26 27  2  0
 27 28  1  0
 28 29  2  0
 29 30  1  0
 23 31  1  0
 31 32  2  0
 22 33  1  0
 33 34  2  0
 33 35  1  0
 35 36  1  0
 36 37  2  0
 32  2  1  0
 19  3  1  0
 32 20  1  0
 15 11  1  0
 36 21  1  0
 29 24  1  0
M  END
>  <Compound_ID>  (53) 
CHEMBL272267

>  <Active>  (53) 
1

>  <Smiles>  (53) 
Cn1c2cc(C(=O)NCCN3CCCC3)c(O)cc2c2c3c(c(-c4ccccc4Cl)cc21)C(=O)NC3=O

>  <canonical_smi>  (53) 
Cn1c2cc(C(=O)NCCN3CCCC3)c(O)cc2c2c3c(c(-c4ccccc4Cl)cc21)C(=O)NC3=O

>  <Set>  (53) 
G2 active

>  <Set_type>  (53) 
Train

>  <MW>  (53) 
516.99

>  <HBD>  (53) 
3

>  <HBA>  (53) 
5

>  <NRB>  (53) 
5

>  <NR>  (53) 
6

>  <NAR>  (53) 
4

>  <PSA>  (53) 
103.67

>  <Standard Type>  (53) 
nan

>  <Standard Relation>  (53) 
nan

>  <Standard Units>  (53) 
nan

>  <Standard Value>  (53) 
nan

>  <Assay ChEMBL ID>  (53) 
nan

>  <Assay Description>  (53) 
nan

>  <BAO Label>  (53) 
nan

$$$$

     RDKit          2D

 39 44  0  0  0  0  0  0  0  0999 V2000
    4.8180   -6.5097    0.0000 O   0  0  0  0  0  0  0  0  0  0  0  0
    4.2079   -5.1394    0.0000 C   0  0  0  0  0  0  0  0  0  0  0  0
    4.9579   -3.8403    0.0000 N   0  0  0  0  0  0  0  0  0  0  0  0
    3.9542   -2.7256    0.0000 C   0  0  0  0  0  0  0  0  0  0  0  0
    4.2660   -1.2584    0.0000 O   0  0  0  0  0  0  0  0  0  0  0  0
    2.5838   -3.3357    0.0000 C   0  0  0  0  0  0  0  0  0  0  0  0
    2.7406   -4.8275    0.0000 C   0  0  0  0  0  0  0  0  0  0  0  0
    1.5271   -5.7092    0.0000 C   0  0  0  0  0  0  0  0  0  0  0  0
    1.6839   -7.2010    0.0000 C   0  0  0  0  0  0  0  0  0  0  0  0
    3.0542   -7.8111    0.0000 C   0  0  0  0  0  0  0  0  0  0  0  0
    3.2110   -9.3029    0.0000 C   0  0  0  0  0  0  0  0  0  0  0  0
    1.9975  -10.1845    0.0000 C   0  0  0  0  0  0  0  0  0  0  0  0
    0.6272   -9.5744    0.0000 C   0  0  0  0  0  0  0  0  0  0  0  0
    0.4704   -8.0826    0.0000 C   0  0  0  0  0  0  0  0  0  0  0  0
   -0.8999   -7.4725    0.0000 Cl  0  0  0  0  0  0  0  0  0  0  0  0
    0.1568   -5.0991    0.0000 C   0  0  0  0  0  0  0  0  0  0  0  0
    0.0000   -3.6073    0.0000 C   0  0  0  0  0  0  0  0  0  0  0  0
    1.2135   -2.7256    0.0000 C   0  0  0  0  0  0  0  0  0  0  0  0
    0.7500   -1.2990    0.0000 C   0  0  0  0  0  0  0  0  0  0  0  0
    1.5000    0.0000    0.0000 C   0  0  0  0  0  0  0  0  0  0  0  0
    0.7500    1.2990    0.0000 C   0  0  0  0  0  0  0  0  0  0  0  0
    1.5000    2.5981    0.0000 O   0  0  0  0  0  0  0  0  0  0  0  0
   -0.7500    1.2990    0.0000 C   0  0  0  0  0  0  0  0  0  0  0  0
   -1.5000    2.5981    0.0000 O   0  0  0  0  0  0  0  0  0  0  0  0
   -3.0000    2.5981    0.0000 C   0  0  0  0  0  0  0  0  0  0  0  0
   -3.7500    3.8971    0.0000 C   0  0  0  0  0  0  0  0  0  0  0  0
   -5.2500    3.8971    0.0000 C   0  0  0  0  0  0  0  0  0  0  0  0
   -6.0000    5.1962    0.0000 N   0  0  0  0  0  0  0  0  0  0  0  0
   -5.2500    6.4952    0.0000 C   0  0  0  0  0  0  0  0  0  0  0  0
   -6.0000    7.7942    0.0000 C   0  0  0  0  0  0  0  0  0  0  0  0
   -7.5000    7.7942    0.0000 O   0  0  0  0  0  0  0  0  0  0  0  0
   -8.2500    6.4952    0.0000 C   0  0  0  0  0  0  0  0  0  0  0  0
   -7.5000    5.1962    0.0000 C   0  0  0  0  0  0  0  0  0  0  0  0
   -1.5000    0.0000    0.0000 C   0  0  0  0  0  0  0  0  0  0  0  0
   -0.7500   -1.2990    0.0000 C   0  0  0  0  0  0  0  0  0  0  0  0
   -1.2135   -2.7256    0.0000 N   0  0  0  0  0  0  0  0  0  0  0  0
   -2.6401   -3.1891    0.0000 C   0  0  0  0  0  0  0  0  0  0  0  0
   -3.7548   -2.1855    0.0000 C   0  0  0  0  0  0  0  0  0  0  0  0
   -5.1814   -2.6490    0.0000 O   0  0  0  0  0  0  0  0  0  0  0  0
  1  2  2  0
  2  3  1  0
  3  4  1  0
  4  5  2  0
  4  6  1  0
  6  7  2  0
  7  8  1  0
  8  9  1  0
  9 10  2  0
 10 11  1  0
 11 12  2  0
 12 13  1  0
 13 14  2  0
 14 15  1  0
  8 16  2  0
 16 17  1  0
 17 18  2  0
 18 19  1  0
 19 20  2  0
 20 21  1  0
 21 22  1  0
 21 23  2  0
 23 24  1  0
 24 25  1  0
 25 26  1  0
 26 27  1  0
 27 28  1  0
 28 29  1  0
 29 30  1  0
 30 31  1  0
 31 32  1  0
 32 33  1  0
 23 34  1  0
 34 35  2  0
 35 36  1  0
 36 37  1  0
 37 38  1  0
 38 39  1  0
  7  2  1  0
 14  9  1  0
 36 17  1  0
 18  6  1  0
 35 19  1  0
 33 28  1  0
M  END
>  <Compound_ID>  (54) 
CHEMBL271715

>  <Active>  (54) 
1

>  <Smiles>  (54) 
O=C1NC(=O)c2c1c(-c1ccccc1Cl)cc1c2c2cc(O)c(OCCCN3CCOCC3)cc2n1CCO

>  <canonical_smi>  (54) 
O=C1NC(=O)c2c1c(-c1ccccc1Cl)cc1c2c2cc(O)c(OCCCN3CCOCC3)cc2n1CCO

>  <Set>  (54) 
G2 active

>  <Set_type>  (54) 
Train

>  <MW>  (54) 
550.01

>  <HBD>  (54) 
3

>  <HBA>  (54) 
7

>  <NRB>  (54) 
8

>  <NR>  (54) 
6

>  <NAR>  (54) 
4

>  <PSA>  (54) 
113.26

>  <Standard Type>  (54) 
nan

>  <Standard Relation>  (54) 
nan

>  <Standard Units>  (54) 
nan

>  <Standard Value>  (54) 
nan

>  <Assay ChEMBL ID>  (54) 
nan

>  <Assay Description>  (54) 
nan

>  <BAO Label>  (54) 
nan

$$$$

     RDKit          2D

 34 39  0  0  0  0  0  0  0  0999 V2000
    4.8180   -6.5097    0.0000 O   0  0  0  0  0  0  0  0  0  0  0  0
    4.2079   -5.1394    0.0000 C   0  0  0  0  0  0  0  0  0  0  0  0
    4.9579   -3.8403    0.0000 N   0  0  0  0  0  0  0  0  0  0  0  0
    3.9542   -2.7256    0.0000 C   0  0  0  0  0  0  0  0  0  0  0  0
    4.2660   -1.2584    0.0000 O   0  0  0  0  0  0  0  0  0  0  0  0
    2.5838   -3.3357    0.0000 C   0  0  0  0  0  0  0  0  0  0  0  0
    2.7406   -4.8275    0.0000 C   0  0  0  0  0  0  0  0  0  0  0  0
    1.5271   -5.7092    0.0000 C   0  0  0  0  0  0  0  0  0  0  0  0
    1.6839   -7.2010    0.0000 C   0  0  0  0  0  0  0  0  0  0  0  0
    3.0542   -7.8111    0.0000 C   0  0  0  0  0  0  0  0  0  0  0  0
    3.2110   -9.3029    0.0000 C   0  0  0  0  0  0  0  0  0  0  0  0
    1.9975  -10.1845    0.0000 C   0  0  0  0  0  0  0  0  0  0  0  0
    0.6272   -9.5744    0.0000 C   0  0  0  0  0  0  0  0  0  0  0  0
    0.4704   -8.0826    0.0000 C   0  0  0  0  0  0  0  0  0  0  0  0
   -0.8999   -7.4725    0.0000 Cl  0  0  0  0  0  0  0  0  0  0  0  0
    0.1568   -5.0991    0.0000 C   0  0  0  0  0  0  0  0  0  0  0  0
   -0.0000   -3.6073    0.0000 C   0  0  0  0  0  0  0  0  0  0  0  0
    1.2135   -2.7256    0.0000 C   0  0  0  0  0  0  0  0  0  0  0  0
    0.7500   -1.2990    0.0000 C   0  0  0  0  0  0  0  0  0  0  0  0
    1.5000    0.0000    0.0000 C   0  0  0  0  0  0  0  0  0  0  0  0
    0.7500    1.2990    0.0000 C   0  0  0  0  0  0  0  0  0  0  0  0
    1.5000    2.5981    0.0000 O   0  0  0  0  0  0  0  0  0  0  0  0
   -0.7500    1.2990    0.0000 C   0  0  0  0  0  0  0  0  0  0  0  0
   -1.5000    0.0000    0.0000 C   0  0  0  0  0  0  0  0  0  0  0  0
   -0.7500   -1.2990    0.0000 C   0  0  0  0  0  0  0  0  0  0  0  0
   -1.2135   -2.7256    0.0000 N   0  0  0  0  0  0  0  0  0  0  0  0
   -2.6401   -3.1891    0.0000 C   0  0  0  0  0  0  0  0  0  0  0  0
   -3.7548   -2.1855    0.0000 C   0  0  0  0  0  0  0  0  0  0  0  0
   -5.1814   -2.6490    0.0000 C   0  0  0  0  0  0  0  0  0  0  0  0
   -6.2961   -1.6453    0.0000 C   0  0  0  0  0  0  0  0  0  0  0  0
   -7.7634   -1.9571    0.0000 N   0  0  0  0  0  0  0  0  0  0  0  0
   -8.5134   -0.6581    0.0000 N   0  0  0  0  0  0  0  0  0  0  0  0
   -7.5097    0.4566    0.0000 N   0  0  0  0  0  0  0  0  0  0  0  0
   -6.1393   -0.1535    0.0000 N   0  0  0  0  0  0  0  0  0  0  0  0
  1  2  2  0
  2  3  1  0
  3  4  1  0
  4  5  2  0
  4  6  1  0
  6  7  2  0
  7  8  1  0
  8  9  1  0
  9 10  2  0
 10 11  1  0
 11 12  2  0
 12 13  1  0
 13 14  2  0
 14 15  1  0
  8 16  2  0
 16 17  1  0
 17 18  2  0
 18 19  1  0
 19 20  2  0
 20 21  1  0
 21 22  1  0
 21 23  2  0
 23 24  1  0
 24 25  2  0
 25 26  1  0
 26 27  1  0
 27 28  1  0
 28 29  1  0
 29 30  1  0
 30 31  2  0
 31 32  1  0
 32 33  2  0
 33 34  1  0
  7  2  1  0
 14  9  1  0
 26 17  1  0
 34 30  1  0
 18  6  1  0
 25 19  1  0
M  END
>  <Compound_ID>  (55) 
CHEMBL471329

>  <Active>  (55) 
1

>  <Smiles>  (55) 
O=C1NC(=O)c2c1c(-c1ccccc1Cl)cc1c2c2cc(O)ccc2n1CCCc1nnn[nH]1

>  <canonical_smi>  (55) 
O=C1NC(=O)c2c1c(-c1ccccc1Cl)cc1c2c2cc(O)ccc2n1CCCc1nnn[nH]1

>  <Set>  (55) 
G2 active

>  <Set_type>  (55) 
Train

>  <MW>  (55) 
472.89

>  <HBD>  (55) 
3

>  <HBA>  (55) 
6

>  <NRB>  (55) 
5

>  <NR>  (55) 
6

>  <NAR>  (55) 
5

>  <PSA>  (55) 
125.79

>  <Standard Type>  (55) 
nan

>  <Standard Relation>  (55) 
nan

>  <Standard Units>  (55) 
nan

>  <Standard Value>  (55) 
nan

>  <Assay ChEMBL ID>  (55) 
nan

>  <Assay Description>  (55) 
nan

>  <BAO Label>  (55) 
nan

$$$$

     RDKit          2D

 36 41  0  0  0  0  0  0  0  0999 V2000
    4.8180   -6.5097    0.0000 O   0  0  0  0  0  0  0  0  0  0  0  0
    4.2079   -5.1394    0.0000 C   0  0  0  0  0  0  0  0  0  0  0  0
    4.9579   -3.8403    0.0000 N   0  0  0  0  0  0  0  0  0  0  0  0
    3.9542   -2.7256    0.0000 C   0  0  0  0  0  0  0  0  0  0  0  0
    4.2660   -1.2584    0.0000 O   0  0  0  0  0  0  0  0  0  0  0  0
    2.5838   -3.3357    0.0000 C   0  0  0  0  0  0  0  0  0  0  0  0
    2.7406   -4.8275    0.0000 C   0  0  0  0  0  0  0  0  0  0  0  0
    1.5271   -5.7092    0.0000 C   0  0  0  0  0  0  0  0  0  0  0  0
    1.6839   -7.2010    0.0000 C   0  0  0  0  0  0  0  0  0  0  0  0
    3.0542   -7.8111    0.0000 C   0  0  0  0  0  0  0  0  0  0  0  0
    3.2110   -9.3029    0.0000 C   0  0  0  0  0  0  0  0  0  0  0  0
    1.9975  -10.1845    0.0000 C   0  0  0  0  0  0  0  0  0  0  0  0
    0.6272   -9.5744    0.0000 C   0  0  0  0  0  0  0  0  0  0  0  0
    0.4704   -8.0826    0.0000 C   0  0  0  0  0  0  0  0  0  0  0  0
   -0.8999   -7.4725    0.0000 Cl  0  0  0  0  0  0  0  0  0  0  0  0
    0.1568   -5.0991    0.0000 C   0  0  0  0  0  0  0  0  0  0  0  0
   -0.0000   -3.6073    0.0000 C   0  0  0  0  0  0  0  0  0  0  0  0
    1.2135   -2.7256    0.0000 C   0  0  0  0  0  0  0  0  0  0  0  0
    0.7500   -1.2990    0.0000 C   0  0  0  0  0  0  0  0  0  0  0  0
    1.5000    0.0000    0.0000 C   0  0  0  0  0  0  0  0  0  0  0  0
    0.7500    1.2990    0.0000 C   0  0  0  0  0  0  0  0  0  0  0  0
    1.5000    2.5981    0.0000 O   0  0  0  0  0  0  0  0  0  0  0  0
   -0.7500    1.2990    0.0000 C   0  0  0  0  0  0  0  0  0  0  0  0
   -1.5000    0.0000    0.0000 C   0  0  0  0  0  0  0  0  0  0  0  0
   -0.7500   -1.2990    0.0000 C   0  0  0  0  0  0  0  0  0  0  0  0
   -1.2135   -2.7256    0.0000 N   0  0  0  0  0  0  0  0  0  0  0  0
   -2.6401   -3.1891    0.0000 C   0  0  0  0  0  0  0  0  0  0  0  0
   -3.7548   -2.1855    0.0000 C   0  0  0  0  0  0  0  0  0  0  0  0
   -5.1814   -2.6490    0.0000 S   0  0  0  0  0  0  0  0  0  0  0  0
   -5.6449   -1.2224    0.0000 O   0  0  0  0  0  0  0  0  0  0  0  0
   -4.7179   -4.0756    0.0000 O   0  0  0  0  0  0  0  0  0  0  0  0
   -6.6080   -3.1125    0.0000 N   0  0  0  0  0  0  0  0  0  0  0  0
   -7.0715   -4.5391    0.0000 C   0  0  0  0  0  0  0  0  0  0  0  0
   -8.5715   -4.5391    0.0000 C   0  0  0  0  0  0  0  0  0  0  0  0
   -9.0350   -3.1125    0.0000 N   0  0  0  0  0  0  0  0  0  0  0  0
   -7.8215   -2.2308    0.0000 N   0  0  0  0  0  0  0  0  0  0  0  0
  1  2  2  0
  2  3  1  0
  3  4  1  0
  4  5  2  0
  4  6  1  0
  6  7  2  0
  7  8  1  0
  8  9  1  0
  9 10  2  0
 10 11  1  0
 11 12  2  0
 12 13  1  0
 13 14  2  0
 14 15  1  0
  8 16  2  0
 16 17  1  0
 17 18  2  0
 18 19  1  0
 19 20  2  0
 20 21  1  0
 21 22  1  0
 21 23  2  0
 23 24  1  0
 24 25  2  0
 25 26  1  0
 26 27  1  0
 27 28  1  0
 28 29  1  0
 29 30  2  0
 29 31  2  0
 29 32  1  0
 32 33  1  0
 33 34  2  0
 34 35  1  0
 35 36  2  0
  7  2  1  0
 14  9  1  0
 26 17  1  0
 36 32  1  0
 18  6  1  0
 25 19  1  0
M  END
>  <Compound_ID>  (56) 
CHEMBL487757

>  <Active>  (56) 
1

>  <Smiles>  (56) 
O=C1NC(=O)c2c1c(-c1ccccc1Cl)cc1c2c2cc(O)ccc2n1CCS(=O)(=O)n1ccnn1

>  <canonical_smi>  (56) 
O=C1NC(=O)c2c1c(-c1ccccc1Cl)cc1c2c2cc(O)ccc2n1CCS(=O)(=O)n1ccnn1

>  <Set>  (56) 
G2 active

>  <Set_type>  (56) 
Train

>  <MW>  (56) 
521.94

>  <HBD>  (56) 
2

>  <HBA>  (56) 
7

>  <NRB>  (56) 
5

>  <NR>  (56) 
6

>  <NAR>  (56) 
5

>  <PSA>  (56) 
136.18

>  <Standard Type>  (56) 
nan

>  <Standard Relation>  (56) 
nan

>  <Standard Units>  (56) 
nan

>  <Standard Value>  (56) 
nan

>  <Assay ChEMBL ID>  (56) 
nan

>  <Assay Description>  (56) 
nan

>  <BAO Label>  (56) 
nan

$$$$

     RDKit          2D

 36 41  0  0  0  0  0  0  0  0999 V2000
    2.6401   -3.1891    0.0000 C   0  0  0  0  0  0  0  0  0  0  0  0
    1.2135   -2.7256    0.0000 N   0  0  0  0  0  0  0  0  0  0  0  0
    0.7500   -1.2990    0.0000 C   0  0  0  0  0  0  0  0  0  0  0  0
    1.5000    0.0000    0.0000 C   0  0  0  0  0  0  0  0  0  0  0  0
    0.7500    1.2990    0.0000 C   0  0  0  0  0  0  0  0  0  0  0  0
    1.5000    2.5981    0.0000 S   0  0  0  0  0  0  0  0  0  0  0  0
    3.0000    2.5981    0.0000 C   0  0  0  0  0  0  0  0  0  0  0  0
    3.7500    3.8971    0.0000 C   0  0  0  0  0  0  0  0  0  0  0  0
    5.2500    3.8971    0.0000 C   0  0  0  0  0  0  0  0  0  0  0  0
    6.0000    5.1962    0.0000 N   0  0  0  0  0  0  0  0  0  0  0  0
    5.3899    6.5665    0.0000 C   0  0  0  0  0  0  0  0  0  0  0  0
    6.5046    7.5702    0.0000 C   0  0  0  0  0  0  0  0  0  0  0  0
    7.8037    6.8202    0.0000 C   0  0  0  0  0  0  0  0  0  0  0  0
    7.4918    5.3529    0.0000 C   0  0  0  0  0  0  0  0  0  0  0  0
   -0.7500    1.2990    0.0000 C   0  0  0  0  0  0  0  0  0  0  0  0
   -1.5000    2.5981    0.0000 O   0  0  0  0  0  0  0  0  0  0  0  0
   -1.5000    0.0000    0.0000 C   0  0  0  0  0  0  0  0  0  0  0  0
   -0.7500   -1.2990    0.0000 C   0  0  0  0  0  0  0  0  0  0  0  0
   -1.2135   -2.7256    0.0000 C   0  0  0  0  0  0  0  0  0  0  0  0
   -2.5838   -3.3357    0.0000 C   0  0  0  0  0  0  0  0  0  0  0  0
   -2.7406   -4.8275    0.0000 C   0  0  0  0  0  0  0  0  0  0  0  0
   -1.5271   -5.7092    0.0000 C   0  0  0  0  0  0  0  0  0  0  0  0
   -1.6839   -7.2010    0.0000 C   0  0  0  0  0  0  0  0  0  0  0  0
   -3.0542   -7.8111    0.0000 C   0  0  0  0  0  0  0  0  0  0  0  0
   -3.2110   -9.3029    0.0000 C   0  0  0  0  0  0  0  0  0  0  0  0
   -1.9975  -10.1845    0.0000 C   0  0  0  0  0  0  0  0  0  0  0  0
   -0.6272   -9.5744    0.0000 C   0  0  0  0  0  0  0  0  0  0  0  0
   -0.4704   -8.0826    0.0000 C   0  0  0  0  0  0  0  0  0  0  0  0
    0.8999   -7.4725    0.0000 Cl  0  0  0  0  0  0  0  0  0  0  0  0
   -0.1568   -5.0991    0.0000 C   0  0  0  0  0  0  0  0  0  0  0  0
   -0.0000   -3.6073    0.0000 C   0  0  0  0  0  0  0  0  0  0  0  0
   -4.2079   -5.1394    0.0000 C   0  0  0  0  0  0  0  0  0  0  0  0
   -4.8180   -6.5097    0.0000 O   0  0  0  0  0  0  0  0  0  0  0  0
   -4.9579   -3.8403    0.0000 N   0  0  0  0  0  0  0  0  0  0  0  0
   -3.9542   -2.7256    0.0000 C   0  0  0  0  0  0  0  0  0  0  0  0
   -4.2660   -1.2584    0.0000 O   0  0  0  0  0  0  0  0  0  0  0  0
  1  2  1  0
  2  3  1  0
  3  4  2  0
  4  5  1  0
  5  6  1  0
  6  7  1  0
  7  8  1  0
  8  9  1  0
  9 10  1  0
 10 11  1  0
 11 12  1  0
 12 13  1  0
 13 14  1  0
  5 15  2  0
 15 16  1  0
 15 17  1  0
 17 18  2  0
 18 19  1  0
 19 20  2  0
 20 21  1  0
 21 22  2  0
 22 23  1  0
 23 24  2  0
 24 25  1  0
 25 26  2  0
 26 27  1  0
 27 28  2  0
 28 29  1  0
 22 30  1  0
 30 31  2  0
 21 32  1  0
 32 33  2  0
 32 34  1  0
 34 35  1  0
 35 36  2  0
 31  2  1  0
 18  3  1  0
 31 19  1  0
 14 10  1  0
 35 20  1  0
 28 23  1  0
M  END
>  <Compound_ID>  (57) 
CHEMBL404335

>  <Active>  (57) 
1

>  <Smiles>  (57) 
Cn1c2cc(SCCCN3CCCC3)c(O)cc2c2c3c(c(-c4ccccc4Cl)cc21)C(=O)NC3=O

>  <canonical_smi>  (57) 
Cn1c2cc(SCCCN3CCCC3)c(O)cc2c2c3c(c(-c4ccccc4Cl)cc21)C(=O)NC3=O

>  <Set>  (57) 
G2 active

>  <Set_type>  (57) 
Train

>  <MW>  (57) 
520.05

>  <HBD>  (57) 
2

>  <HBA>  (57) 
5

>  <NRB>  (57) 
6

>  <NR>  (57) 
6

>  <NAR>  (57) 
4

>  <PSA>  (57) 
74.57

>  <Standard Type>  (57) 
nan

>  <Standard Relation>  (57) 
nan

>  <Standard Units>  (57) 
nan

>  <Standard Value>  (57) 
nan

>  <Assay ChEMBL ID>  (57) 
nan

>  <Assay Description>  (57) 
nan

>  <BAO Label>  (57) 
nan

$$$$

     RDKit          2D

 24 27  0  0  0  0  0  0  0  0999 V2000
    4.6904   -6.5871    0.0000 N   0  0  0  0  0  0  0  0  0  0  0  0
    4.3786   -5.1199    0.0000 C   0  0  0  0  0  0  0  0  0  0  0  0
    5.4933   -4.1162    0.0000 O   0  0  0  0  0  0  0  0  0  0  0  0
    2.9520   -4.6564    0.0000 C   0  0  0  0  0  0  0  0  0  0  0  0
    2.6401   -3.1891    0.0000 C   0  0  0  0  0  0  0  0  0  0  0  0
    1.2135   -2.7256    0.0000 N   0  0  0  0  0  0  0  0  0  0  0  0
    0.7500   -1.2990    0.0000 C   0  0  0  0  0  0  0  0  0  0  0  0
    1.5000    0.0000    0.0000 C   0  0  0  0  0  0  0  0  0  0  0  0
    0.7500    1.2990    0.0000 C   0  0  0  0  0  0  0  0  0  0  0  0
   -0.7500    1.2990    0.0000 C   0  0  0  0  0  0  0  0  0  0  0  0
   -1.5000    2.5981    0.0000 O   0  0  0  0  0  0  0  0  0  0  0  0
   -1.5000    0.0000    0.0000 C   0  0  0  0  0  0  0  0  0  0  0  0
   -0.7500   -1.2990    0.0000 C   0  0  0  0  0  0  0  0  0  0  0  0
   -1.2135   -2.7256    0.0000 C   0  0  0  0  0  0  0  0  0  0  0  0
   -2.5838   -3.3357    0.0000 C   0  0  0  0  0  0  0  0  0  0  0  0
   -2.7406   -4.8275    0.0000 C   0  0  0  0  0  0  0  0  0  0  0  0
   -1.5271   -5.7092    0.0000 C   0  0  0  0  0  0  0  0  0  0  0  0
   -0.1568   -5.0991    0.0000 C   0  0  0  0  0  0  0  0  0  0  0  0
   -0.0000   -3.6073    0.0000 C   0  0  0  0  0  0  0  0  0  0  0  0
   -4.2079   -5.1394    0.0000 C   0  0  0  0  0  0  0  0  0  0  0  0
   -4.8180   -6.5097    0.0000 O   0  0  0  0  0  0  0  0  0  0  0  0
   -4.9579   -3.8403    0.0000 N   0  0  0  0  0  0  0  0  0  0  0  0
   -3.9542   -2.7256    0.0000 C   0  0  0  0  0  0  0  0  0  0  0  0
   -4.2660   -1.2584    0.0000 O   0  0  0  0  0  0  0  0  0  0  0  0
  1  2  1  0
  2  3  2  0
  2  4  1  0
  4  5  1  0
  5  6  1  0
  6  7  1  0
  7  8  2  0
  8  9  1  0
  9 10  2  0
 10 11  1  0
 10 12  1  0
 12 13  2  0
 13 14  1  0
 14 15  2  0
 15 16  1  0
 16 17  2  0
 17 18  1  0
 18 19  2  0
 16 20  1  0
 20 21  2  0
 20 22  1  0
 22 23  1  0
 23 24  2  0
 19  6  1  0
 13  7  1  0
 19 14  1  0
 23 15  1  0
M  END
>  <Compound_ID>  (58) 
CHEMBL484808

>  <Active>  (58) 
1

>  <Smiles>  (58) 
NC(=O)CCn1c2ccc(O)cc2c2c3c(ccc21)C(=O)NC3=O

>  <canonical_smi>  (58) 
NC(=O)CCn1c2ccc(O)cc2c2c3c(ccc21)C(=O)NC3=O

>  <Set>  (58) 
G2 active

>  <Set_type>  (58) 
Train

>  <MW>  (58) 
323.31

>  <HBD>  (58) 
3

>  <HBA>  (58) 
4

>  <NRB>  (58) 
3

>  <NR>  (58) 
4

>  <NAR>  (58) 
3

>  <PSA>  (58) 
114.42

>  <Standard Type>  (58) 
nan

>  <Standard Relation>  (58) 
nan

>  <Standard Units>  (58) 
nan

>  <Standard Value>  (58) 
nan

>  <Assay ChEMBL ID>  (58) 
nan

>  <Assay Description>  (58) 
nan

>  <BAO Label>  (58) 
nan

$$$$

     RDKit          2D

 24 27  0  0  0  0  0  0  0  0999 V2000
    5.4933   -4.1162    0.0000 O   0  0  0  0  0  0  0  0  0  0  0  0
    4.3786   -5.1199    0.0000 C   0  0  0  0  0  0  0  0  0  0  0  0
    4.6904   -6.5871    0.0000 O   0  0  0  0  0  0  0  0  0  0  0  0
    2.9520   -4.6564    0.0000 C   0  0  0  0  0  0  0  0  0  0  0  0
    2.6401   -3.1891    0.0000 C   0  0  0  0  0  0  0  0  0  0  0  0
    1.2135   -2.7256    0.0000 N   0  0  0  0  0  0  0  0  0  0  0  0
    0.7500   -1.2990    0.0000 C   0  0  0  0  0  0  0  0  0  0  0  0
    1.5000    0.0000    0.0000 C   0  0  0  0  0  0  0  0  0  0  0  0
    0.7500    1.2990    0.0000 C   0  0  0  0  0  0  0  0  0  0  0  0
   -0.7500    1.2990    0.0000 C   0  0  0  0  0  0  0  0  0  0  0  0
   -1.5000    2.5981    0.0000 O   0  0  0  0  0  0  0  0  0  0  0  0
   -1.5000    0.0000    0.0000 C   0  0  0  0  0  0  0  0  0  0  0  0
   -0.7500   -1.2990    0.0000 C   0  0  0  0  0  0  0  0  0  0  0  0
   -1.2135   -2.7256    0.0000 C   0  0  0  0  0  0  0  0  0  0  0  0
   -2.5838   -3.3357    0.0000 C   0  0  0  0  0  0  0  0  0  0  0  0
   -2.7406   -4.8275    0.0000 C   0  0  0  0  0  0  0  0  0  0  0  0
   -1.5271   -5.7092    0.0000 C   0  0  0  0  0  0  0  0  0  0  0  0
   -0.1568   -5.0991    0.0000 C   0  0  0  0  0  0  0  0  0  0  0  0
   -0.0000   -3.6073    0.0000 C   0  0  0  0  0  0  0  0  0  0  0  0
   -4.2079   -5.1394    0.0000 C   0  0  0  0  0  0  0  0  0  0  0  0
   -4.8180   -6.5097    0.0000 O   0  0  0  0  0  0  0  0  0  0  0  0
   -4.9579   -3.8403    0.0000 N   0  0  0  0  0  0  0  0  0  0  0  0
   -3.9542   -2.7256    0.0000 C   0  0  0  0  0  0  0  0  0  0  0  0
   -4.2660   -1.2584    0.0000 O   0  0  0  0  0  0  0  0  0  0  0  0
  1  2  2  0
  2  3  1  0
  2  4  1  0
  4  5  1  0
  5  6  1  0
  6  7  1  0
  7  8  2  0
  8  9  1  0
  9 10  2  0
 10 11  1  0
 10 12  1  0
 12 13  2  0
 13 14  1  0
 14 15  2  0
 15 16  1  0
 16 17  2  0
 17 18  1  0
 18 19  2  0
 16 20  1  0
 20 21  2  0
 20 22  1  0
 22 23  1  0
 23 24  2  0
 19  6  1  0
 13  7  1  0
 19 14  1  0
 23 15  1  0
M  END
>  <Compound_ID>  (59) 
CHEMBL520182

>  <Active>  (59) 
1

>  <Smiles>  (59) 
O=C(O)CCn1c2ccc(O)cc2c2c3c(ccc21)C(=O)NC3=O

>  <canonical_smi>  (59) 
O=C(O)CCn1c2ccc(O)cc2c2c3c(ccc21)C(=O)NC3=O

>  <Set>  (59) 
G2 active

>  <Set_type>  (59) 
Train

>  <MW>  (59) 
324.29

>  <HBD>  (59) 
3

>  <HBA>  (59) 
5

>  <NRB>  (59) 
3

>  <NR>  (59) 
4

>  <NAR>  (59) 
3

>  <PSA>  (59) 
108.63

>  <Standard Type>  (59) 
nan

>  <Standard Relation>  (59) 
nan

>  <Standard Units>  (59) 
nan

>  <Standard Value>  (59) 
nan

>  <Assay ChEMBL ID>  (59) 
nan

>  <Assay Description>  (59) 
nan

>  <BAO Label>  (59) 
nan

$$$$

     RDKit          2D

 38 43  0  0  0  0  0  0  0  0999 V2000
    4.8180   -6.5097    0.0000 O   0  0  0  0  0  0  0  0  0  0  0  0
    4.2079   -5.1394    0.0000 C   0  0  0  0  0  0  0  0  0  0  0  0
    4.9579   -3.8403    0.0000 N   0  0  0  0  0  0  0  0  0  0  0  0
    3.9542   -2.7256    0.0000 C   0  0  0  0  0  0  0  0  0  0  0  0
    4.2660   -1.2584    0.0000 O   0  0  0  0  0  0  0  0  0  0  0  0
    2.5838   -3.3357    0.0000 C   0  0  0  0  0  0  0  0  0  0  0  0
    2.7406   -4.8275    0.0000 C   0  0  0  0  0  0  0  0  0  0  0  0
    1.5271   -5.7092    0.0000 C   0  0  0  0  0  0  0  0  0  0  0  0
    1.6839   -7.2010    0.0000 C   0  0  0  0  0  0  0  0  0  0  0  0
    3.0542   -7.8111    0.0000 C   0  0  0  0  0  0  0  0  0  0  0  0
    3.2110   -9.3029    0.0000 C   0  0  0  0  0  0  0  0  0  0  0  0
    1.9975  -10.1845    0.0000 C   0  0  0  0  0  0  0  0  0  0  0  0
    0.6272   -9.5744    0.0000 C   0  0  0  0  0  0  0  0  0  0  0  0
    0.4704   -8.0826    0.0000 C   0  0  0  0  0  0  0  0  0  0  0  0
   -0.8999   -7.4725    0.0000 Cl  0  0  0  0  0  0  0  0  0  0  0  0
    0.1568   -5.0991    0.0000 C   0  0  0  0  0  0  0  0  0  0  0  0
    0.0000   -3.6073    0.0000 C   0  0  0  0  0  0  0  0  0  0  0  0
    1.2135   -2.7256    0.0000 C   0  0  0  0  0  0  0  0  0  0  0  0
    0.7500   -1.2990    0.0000 C   0  0  0  0  0  0  0  0  0  0  0  0
    1.5000    0.0000    0.0000 C   0  0  0  0  0  0  0  0  0  0  0  0
    0.7500    1.2990    0.0000 C   0  0  0  0  0  0  0  0  0  0  0  0
    1.5000    2.5981    0.0000 O   0  0  0  0  0  0  0  0  0  0  0  0
   -0.7500    1.2990    0.0000 C   0  0  0  0  0  0  0  0  0  0  0  0
   -1.5000    2.5981    0.0000 C   0  0  0  0  0  0  0  0  0  0  0  0
   -0.7500    3.8971    0.0000 C   0  0  0  0  0  0  0  0  0  0  0  0
   -1.5000    5.1962    0.0000 C   0  0  0  0  0  0  0  0  0  0  0  0
   -0.7500    6.4952    0.0000 C   0  0  0  0  0  0  0  0  0  0  0  0
   -1.5000    7.7942    0.0000 N   0  0  0  0  0  0  0  0  0  0  0  0
   -2.9918    7.9510    0.0000 C   0  0  0  0  0  0  0  0  0  0  0  0
   -3.3037    9.4182    0.0000 C   0  0  0  0  0  0  0  0  0  0  0  0
   -2.0046   10.1682    0.0000 C   0  0  0  0  0  0  0  0  0  0  0  0
   -0.8899    9.1645    0.0000 C   0  0  0  0  0  0  0  0  0  0  0  0
   -1.5000    0.0000    0.0000 C   0  0  0  0  0  0  0  0  0  0  0  0
   -0.7500   -1.2990    0.0000 C   0  0  0  0  0  0  0  0  0  0  0  0
   -1.2135   -2.7256    0.0000 N   0  0  0  0  0  0  0  0  0  0  0  0
   -2.6401   -3.1891    0.0000 C   0  0  0  0  0  0  0  0  0  0  0  0
   -3.7548   -2.1855    0.0000 C   0  0  0  0  0  0  0  0  0  0  0  0
   -5.1814   -2.6490    0.0000 O   0  0  0  0  0  0  0  0  0  0  0  0
  1  2  2  0
  2  3  1  0
  3  4  1  0
  4  5  2  0
  4  6  1  0
  6  7  2  0
  7  8  1  0
  8  9  1  0
  9 10  2  0
 10 11  1  0
 11 12  2  0
 12 13  1  0
 13 14  2  0
 14 15  1  0
  8 16  2  0
 16 17  1  0
 17 18  2  0
 18 19  1  0
 19 20  2  0
 20 21  1  0
 21 22  1  0
 21 23  2  0
 23 24  1  0
 24 25  1  0
 25 26  1  0
 26 27  1  0
 27 28  1  0
 28 29  1  0
 29 30  1  0
 30 31  1  0
 31 32  1  0
 23 33  1  0
 33 34  2  0
 34 35  1  0
 35 36  1  0
 36 37  1  0
 37 38  1  0
  7  2  1  0
 14  9  1  0
 35 17  1  0
 18  6  1  0
 34 19  1  0
 32 28  1  0
M  END
>  <Compound_ID>  (60) 
CHEMBL255565

>  <Active>  (60) 
1

>  <Smiles>  (60) 
O=C1NC(=O)c2c1c(-c1ccccc1Cl)cc1c2c2cc(O)c(CCCCN3CCCC3)cc2n1CCO

>  <canonical_smi>  (60) 
O=C1NC(=O)c2c1c(-c1ccccc1Cl)cc1c2c2cc(O)c(CCCCN3CCCC3)cc2n1CCO

>  <Set>  (60) 
G2 active

>  <Set_type>  (60) 
Train

>  <MW>  (60) 
532.04

>  <HBD>  (60) 
3

>  <HBA>  (60) 
5

>  <NRB>  (60) 
8

>  <NR>  (60) 
6

>  <NAR>  (60) 
4

>  <PSA>  (60) 
94.8

>  <Standard Type>  (60) 
nan

>  <Standard Relation>  (60) 
nan

>  <Standard Units>  (60) 
nan

>  <Standard Value>  (60) 
nan

>  <Assay ChEMBL ID>  (60) 
nan

>  <Assay Description>  (60) 
nan

>  <BAO Label>  (60) 
nan

$$$$

     RDKit          2D

 34 39  0  0  0  0  0  0  0  0999 V2000
    4.8180   -6.5097    0.0000 O   0  0  0  0  0  0  0  0  0  0  0  0
    4.2079   -5.1394    0.0000 C   0  0  0  0  0  0  0  0  0  0  0  0
    4.9579   -3.8403    0.0000 N   0  0  0  0  0  0  0  0  0  0  0  0
    3.9542   -2.7256    0.0000 C   0  0  0  0  0  0  0  0  0  0  0  0
    4.2660   -1.2584    0.0000 O   0  0  0  0  0  0  0  0  0  0  0  0
    2.5838   -3.3357    0.0000 C   0  0  0  0  0  0  0  0  0  0  0  0
    2.7406   -4.8275    0.0000 C   0  0  0  0  0  0  0  0  0  0  0  0
    1.5271   -5.7092    0.0000 C   0  0  0  0  0  0  0  0  0  0  0  0
    1.6839   -7.2010    0.0000 C   0  0  0  0  0  0  0  0  0  0  0  0
    3.0542   -7.8111    0.0000 C   0  0  0  0  0  0  0  0  0  0  0  0
    3.2110   -9.3029    0.0000 C   0  0  0  0  0  0  0  0  0  0  0  0
    1.9975  -10.1845    0.0000 C   0  0  0  0  0  0  0  0  0  0  0  0
    0.6272   -9.5744    0.0000 C   0  0  0  0  0  0  0  0  0  0  0  0
    0.4704   -8.0826    0.0000 C   0  0  0  0  0  0  0  0  0  0  0  0
   -0.8999   -7.4725    0.0000 Cl  0  0  0  0  0  0  0  0  0  0  0  0
    0.1568   -5.0991    0.0000 C   0  0  0  0  0  0  0  0  0  0  0  0
   -0.0000   -3.6073    0.0000 C   0  0  0  0  0  0  0  0  0  0  0  0
    1.2135   -2.7256    0.0000 C   0  0  0  0  0  0  0  0  0  0  0  0
    0.7500   -1.2990    0.0000 C   0  0  0  0  0  0  0  0  0  0  0  0
    1.5000    0.0000    0.0000 C   0  0  0  0  0  0  0  0  0  0  0  0
    0.7500    1.2990    0.0000 C   0  0  0  0  0  0  0  0  0  0  0  0
    1.5000    2.5981    0.0000 O   0  0  0  0  0  0  0  0  0  0  0  0
   -0.7500    1.2990    0.0000 C   0  0  0  0  0  0  0  0  0  0  0  0
   -1.5000    0.0000    0.0000 C   0  0  0  0  0  0  0  0  0  0  0  0
   -0.7500   -1.2990    0.0000 C   0  0  0  0  0  0  0  0  0  0  0  0
   -1.2135   -2.7256    0.0000 N   0  0  0  0  0  0  0  0  0  0  0  0
   -2.6401   -3.1891    0.0000 C   0  0  0  0  0  0  0  0  0  0  0  0
   -3.7548   -2.1855    0.0000 C   0  0  0  0  0  0  0  0  0  0  0  0
   -5.1814   -2.6490    0.0000 S   0  0  0  0  0  0  0  0  0  0  0  0
   -6.2961   -1.6453    0.0000 C   0  0  0  0  0  0  0  0  0  0  0  0
   -7.7634   -1.9571    0.0000 N   0  0  0  0  0  0  0  0  0  0  0  0
   -8.5134   -0.6581    0.0000 N   0  0  0  0  0  0  0  0  0  0  0  0
   -7.5097    0.4566    0.0000 C   0  0  0  0  0  0  0  0  0  0  0  0
   -6.1393   -0.1535    0.0000 N   0  0  0  0  0  0  0  0  0  0  0  0
  1  2  2  0
  2  3  1  0
  3  4  1  0
  4  5  2  0
  4  6  1  0
  6  7  2  0
  7  8  1  0
  8  9  1  0
  9 10  2  0
 10 11  1  0
 11 12  2  0
 12 13  1  0
 13 14  2  0
 14 15  1  0
  8 16  2  0
 16 17  1  0
 17 18  2  0
 18 19  1  0
 19 20  2  0
 20 21  1  0
 21 22  1  0
 21 23  2  0
 23 24  1  0
 24 25  2  0
 25 26  1  0
 26 27  1  0
 27 28  1  0
 28 29  1  0
 29 30  1  0
 30 31  2  0
 31 32  1  0
 32 33  2  0
 33 34  1  0
  7  2  1  0
 14  9  1  0
 26 17  1  0
 34 30  1  0
 18  6  1  0
 25 19  1  0
M  END
>  <Compound_ID>  (61) 
CHEMBL513079

>  <Active>  (61) 
1

>  <Smiles>  (61) 
O=C1NC(=O)c2c1c(-c1ccccc1Cl)cc1c2c2cc(O)ccc2n1CCSc1nnc[nH]1

>  <canonical_smi>  (61) 
O=C1NC(=O)c2c1c(-c1ccccc1Cl)cc1c2c2cc(O)ccc2n1CCSc1nnc[nH]1

>  <Set>  (61) 
G2 active

>  <Set_type>  (61) 
Train

>  <MW>  (61) 
489.94

>  <HBD>  (61) 
3

>  <HBA>  (61) 
6

>  <NRB>  (61) 
5

>  <NR>  (61) 
6

>  <NAR>  (61) 
5

>  <PSA>  (61) 
112.9

>  <Standard Type>  (61) 
nan

>  <Standard Relation>  (61) 
nan

>  <Standard Units>  (61) 
nan

>  <Standard Value>  (61) 
nan

>  <Assay ChEMBL ID>  (61) 
nan

>  <Assay Description>  (61) 
nan

>  <BAO Label>  (61) 
nan

$$$$

     RDKit          2D

 38 43  0  0  0  0  0  0  0  0999 V2000
    4.8180   -6.5097    0.0000 O   0  0  0  0  0  0  0  0  0  0  0  0
    4.2079   -5.1394    0.0000 C   0  0  0  0  0  0  0  0  0  0  0  0
    4.9579   -3.8403    0.0000 N   0  0  0  0  0  0  0  0  0  0  0  0
    3.9542   -2.7256    0.0000 C   0  0  0  0  0  0  0  0  0  0  0  0
    4.2660   -1.2584    0.0000 O   0  0  0  0  0  0  0  0  0  0  0  0
    2.5838   -3.3357    0.0000 C   0  0  0  0  0  0  0  0  0  0  0  0
    2.7406   -4.8275    0.0000 C   0  0  0  0  0  0  0  0  0  0  0  0
    1.5271   -5.7092    0.0000 C   0  0  0  0  0  0  0  0  0  0  0  0
    1.6839   -7.2010    0.0000 C   0  0  0  0  0  0  0  0  0  0  0  0
    3.0542   -7.8111    0.0000 C   0  0  0  0  0  0  0  0  0  0  0  0
    3.2110   -9.3029    0.0000 C   0  0  0  0  0  0  0  0  0  0  0  0
    1.9975  -10.1845    0.0000 C   0  0  0  0  0  0  0  0  0  0  0  0
    0.6272   -9.5744    0.0000 C   0  0  0  0  0  0  0  0  0  0  0  0
    0.4704   -8.0826    0.0000 C   0  0  0  0  0  0  0  0  0  0  0  0
   -0.8999   -7.4725    0.0000 Cl  0  0  0  0  0  0  0  0  0  0  0  0
    0.1568   -5.0991    0.0000 C   0  0  0  0  0  0  0  0  0  0  0  0
    0.0000   -3.6073    0.0000 C   0  0  0  0  0  0  0  0  0  0  0  0
    1.2135   -2.7256    0.0000 C   0  0  0  0  0  0  0  0  0  0  0  0
    0.7500   -1.2990    0.0000 C   0  0  0  0  0  0  0  0  0  0  0  0
    1.5000    0.0000    0.0000 C   0  0  0  0  0  0  0  0  0  0  0  0
    0.7500    1.2990    0.0000 C   0  0  0  0  0  0  0  0  0  0  0  0
    1.5000    2.5981    0.0000 O   0  0  0  0  0  0  0  0  0  0  0  0
   -0.7500    1.2990    0.0000 C   0  0  0  0  0  0  0  0  0  0  0  0
   -1.5000    2.5981    0.0000 O   0  0  0  0  0  0  0  0  0  0  0  0
   -3.0000    2.5981    0.0000 C   0  0  0  0  0  0  0  0  0  0  0  0
   -3.7500    3.8971    0.0000 C   0  0  0  0  0  0  0  0  0  0  0  0
   -5.2500    3.8971    0.0000 C   0  0  0  0  0  0  0  0  0  0  0  0
   -6.0000    5.1962    0.0000 N   0  0  0  0  0  0  0  0  0  0  0  0
   -7.4918    5.3529    0.0000 C   0  0  0  0  0  0  0  0  0  0  0  0
   -7.8037    6.8202    0.0000 C   0  0  0  0  0  0  0  0  0  0  0  0
   -6.5046    7.5702    0.0000 C   0  0  0  0  0  0  0  0  0  0  0  0
   -5.3899    6.5665    0.0000 C   0  0  0  0  0  0  0  0  0  0  0  0
   -1.5000    0.0000    0.0000 C   0  0  0  0  0  0  0  0  0  0  0  0
   -0.7500   -1.2990    0.0000 C   0  0  0  0  0  0  0  0  0  0  0  0
   -1.2135   -2.7256    0.0000 N   0  0  0  0  0  0  0  0  0  0  0  0
   -2.6401   -3.1891    0.0000 C   0  0  0  0  0  0  0  0  0  0  0  0
   -3.7548   -2.1855    0.0000 C   0  0  0  0  0  0  0  0  0  0  0  0
   -5.1814   -2.6490    0.0000 O   0  0  0  0  0  0  0  0  0  0  0  0
  1  2  2  0
  2  3  1  0
  3  4  1  0
  4  5  2  0
  4  6  1  0
  6  7  2  0
  7  8  1  0
  8  9  1  0
  9 10  2  0
 10 11  1  0
 11 12  2  0
 12 13  1  0
 13 14  2  0
 14 15  1  0
  8 16  2  0
 16 17  1  0
 17 18  2  0
 18 19  1  0
 19 20  2  0
 20 21  1  0
 21 22  1  0
 21 23  2  0
 23 24  1  0
 24 25  1  0
 25 26  1  0
 26 27  1  0
 27 28  1  0
 28 29  1  0
 29 30  2  0
 30 31  1  0
 31 32  2  0
 23 33  1  0
 33 34  2  0
 34 35  1  0
 35 36  1  0
 36 37  1  0
 37 38  1  0
  7  2  1  0
 14  9  1  0
 35 17  1  0
 18  6  1  0
 34 19  1  0
 32 28  1  0
M  END
>  <Compound_ID>  (62) 
CHEMBL474111

>  <Active>  (62) 
1

>  <Smiles>  (62) 
O=C1NC(=O)c2c1c(-c1ccccc1Cl)cc1c2c2cc(O)c(OCCCn3cccc3)cc2n1CCO

>  <canonical_smi>  (62) 
O=C1NC(=O)c2c1c(-c1ccccc1Cl)cc1c2c2cc(O)c(OCCCn3cccc3)cc2n1CCO

>  <Set>  (62) 
G2 active

>  <Set_type>  (62) 
Train

>  <MW>  (62) 
529.98

>  <HBD>  (62) 
3

>  <HBA>  (62) 
5

>  <NRB>  (62) 
8

>  <NR>  (62) 
6

>  <NAR>  (62) 
5

>  <PSA>  (62) 
105.72

>  <Standard Type>  (62) 
nan

>  <Standard Relation>  (62) 
nan

>  <Standard Units>  (62) 
nan

>  <Standard Value>  (62) 
nan

>  <Assay ChEMBL ID>  (62) 
nan

>  <Assay Description>  (62) 
nan

>  <BAO Label>  (62) 
nan

$$$$

     RDKit          2D

 38 43  0  0  0  0  0  0  0  0999 V2000
    4.8180   -6.5097    0.0000 O   0  0  0  0  0  0  0  0  0  0  0  0
    4.2079   -5.1394    0.0000 C   0  0  0  0  0  0  0  0  0  0  0  0
    4.9579   -3.8403    0.0000 N   0  0  0  0  0  0  0  0  0  0  0  0
    3.9542   -2.7256    0.0000 C   0  0  0  0  0  0  0  0  0  0  0  0
    4.2660   -1.2584    0.0000 O   0  0  0  0  0  0  0  0  0  0  0  0
    2.5838   -3.3357    0.0000 C   0  0  0  0  0  0  0  0  0  0  0  0
    2.7406   -4.8275    0.0000 C   0  0  0  0  0  0  0  0  0  0  0  0
    1.5271   -5.7092    0.0000 C   0  0  0  0  0  0  0  0  0  0  0  0
    1.6839   -7.2010    0.0000 C   0  0  0  0  0  0  0  0  0  0  0  0
    3.0542   -7.8111    0.0000 C   0  0  0  0  0  0  0  0  0  0  0  0
    3.2110   -9.3029    0.0000 C   0  0  0  0  0  0  0  0  0  0  0  0
    1.9975  -10.1845    0.0000 C   0  0  0  0  0  0  0  0  0  0  0  0
    0.6272   -9.5744    0.0000 C   0  0  0  0  0  0  0  0  0  0  0  0
    0.4704   -8.0826    0.0000 C   0  0  0  0  0  0  0  0  0  0  0  0
   -0.8999   -7.4725    0.0000 Cl  0  0  0  0  0  0  0  0  0  0  0  0
    0.1568   -5.0991    0.0000 C   0  0  0  0  0  0  0  0  0  0  0  0
    0.0000   -3.6073    0.0000 C   0  0  0  0  0  0  0  0  0  0  0  0
    1.2135   -2.7256    0.0000 C   0  0  0  0  0  0  0  0  0  0  0  0
    0.7500   -1.2990    0.0000 C   0  0  0  0  0  0  0  0  0  0  0  0
    1.5000    0.0000    0.0000 C   0  0  0  0  0  0  0  0  0  0  0  0
    0.7500    1.2990    0.0000 C   0  0  0  0  0  0  0  0  0  0  0  0
    1.5000    2.5981    0.0000 O   0  0  0  0  0  0  0  0  0  0  0  0
   -0.7500    1.2990    0.0000 C   0  0  0  0  0  0  0  0  0  0  0  0
   -1.5000    2.5981    0.0000 C   0  0  0  0  0  0  0  0  0  0  0  0
   -0.7500    3.8971    0.0000 C   0  0  0  0  0  0  0  0  0  0  0  0
   -1.5000    5.1962    0.0000 C   0  0  0  0  0  0  0  0  0  0  0  0
   -0.7500    6.4952    0.0000 C   0  0  0  0  0  0  0  0  0  0  0  0
   -1.5000    7.7942    0.0000 N   0  0  0  0  0  0  0  0  0  0  0  0
   -2.9918    7.9510    0.0000 C   0  0  0  0  0  0  0  0  0  0  0  0
   -3.3037    9.4182    0.0000 C   0  0  0  0  0  0  0  0  0  0  0  0
   -2.0046   10.1682    0.0000 C   0  0  0  0  0  0  0  0  0  0  0  0
   -0.8899    9.1645    0.0000 C   0  0  0  0  0  0  0  0  0  0  0  0
   -1.5000    0.0000    0.0000 C   0  0  0  0  0  0  0  0  0  0  0  0
   -0.7500   -1.2990    0.0000 C   0  0  0  0  0  0  0  0  0  0  0  0
   -1.2135   -2.7256    0.0000 N   0  0  0  0  0  0  0  0  0  0  0  0
   -2.6401   -3.1891    0.0000 C   0  0  0  0  0  0  0  0  0  0  0  0
   -3.7548   -2.1855    0.0000 C   0  0  0  0  0  0  0  0  0  0  0  0
   -5.1814   -2.6490    0.0000 O   0  0  0  0  0  0  0  0  0  0  0  0
  1  2  2  0
  2  3  1  0
  3  4  1  0
  4  5  2  0
  4  6  1  0
  6  7  2  0
  7  8  1  0
  8  9  1  0
  9 10  2  0
 10 11  1  0
 11 12  2  0
 12 13  1  0
 13 14  2  0
 14 15  1  0
  8 16  2  0
 16 17  1  0
 17 18  2  0
 18 19  1  0
 19 20  2  0
 20 21  1  0
 21 22  1  0
 21 23  2  0
 23 24  1  0
 24 25  1  0
 25 26  1  0
 26 27  1  0
 27 28  1  0
 28 29  1  0
 29 30  2  0
 30 31  1  0
 31 32  2  0
 23 33  1  0
 33 34  2  0
 34 35  1  0
 35 36  1  0
 36 37  1  0
 37 38  1  0
  7  2  1  0
 14  9  1  0
 35 17  1  0
 18  6  1  0
 34 19  1  0
 32 28  1  0
M  END
>  <Compound_ID>  (63) 
CHEMBL469612

>  <Active>  (63) 
1

>  <Smiles>  (63) 
O=C1NC(=O)c2c1c(-c1ccccc1Cl)cc1c2c2cc(O)c(CCCCn3cccc3)cc2n1CCO

>  <canonical_smi>  (63) 
O=C1NC(=O)c2c1c(-c1ccccc1Cl)cc1c2c2cc(O)c(CCCCn3cccc3)cc2n1CCO

>  <Set>  (63) 
G2 active

>  <Set_type>  (63) 
Train

>  <MW>  (63) 
528.01

>  <HBD>  (63) 
3

>  <HBA>  (63) 
4

>  <NRB>  (63) 
8

>  <NR>  (63) 
6

>  <NAR>  (63) 
5

>  <PSA>  (63) 
96.49

>  <Standard Type>  (63) 
nan

>  <Standard Relation>  (63) 
nan

>  <Standard Units>  (63) 
nan

>  <Standard Value>  (63) 
nan

>  <Assay ChEMBL ID>  (63) 
nan

>  <Assay Description>  (63) 
nan

>  <BAO Label>  (63) 
nan

$$$$

     RDKit          2D

 33 36  0  0  0  0  0  0  0  0999 V2000
   -3.0000   -2.5981    0.0000 C   0  0  0  0  0  0  0  0  0  0  0  0
   -1.5000   -2.5981    0.0000 N   0  0  0  0  0  0  0  0  0  0  0  0
   -0.7500   -3.8971    0.0000 C   0  0  0  0  0  0  0  0  0  0  0  0
   -1.5000   -5.1962    0.0000 O   0  0  0  0  0  0  0  0  0  0  0  0
    0.7500   -3.8971    0.0000 C   0  0  0  0  0  0  0  0  0  0  0  0
    1.5000   -5.1962    0.0000 C   0  0  0  0  0  0  0  0  0  0  0  0
    0.7500   -6.4952    0.0000 C   0  0  0  0  0  0  0  0  0  0  0  0
   -0.7500   -6.4952    0.0000 Cl  0  0  0  0  0  0  0  0  0  0  0  0
    1.5000   -7.7942    0.0000 C   0  0  0  0  0  0  0  0  0  0  0  0
    3.0000   -7.7942    0.0000 C   0  0  0  0  0  0  0  0  0  0  0  0
    3.7500   -6.4952    0.0000 C   0  0  0  0  0  0  0  0  0  0  0  0
    3.0000   -5.1962    0.0000 C   0  0  0  0  0  0  0  0  0  0  0  0
    3.7500   -3.8971    0.0000 Cl  0  0  0  0  0  0  0  0  0  0  0  0
    1.5000   -2.5981    0.0000 C   0  0  0  0  0  0  0  0  0  0  0  0
    0.7500   -1.2990    0.0000 C   0  0  0  0  0  0  0  0  0  0  0  0
    1.5000    0.0000    0.0000 C   0  0  0  0  0  0  0  0  0  0  0  0
    0.7500    1.2990    0.0000 N   0  0  0  0  0  0  0  0  0  0  0  0
   -0.7500    1.2990    0.0000 C   0  0  0  0  0  0  0  0  0  0  0  0
   -1.5000    2.5981    0.0000 N   0  0  0  0  0  0  0  0  0  0  0  0
   -0.7500    3.8971    0.0000 C   0  0  0  0  0  0  0  0  0  0  0  0
    0.7500    3.8971    0.0000 C   0  0  0  0  0  0  0  0  0  0  0  0
    1.5000    5.1962    0.0000 C   0  0  0  0  0  0  0  0  0  0  0  0
    0.7500    6.4952    0.0000 C   0  0  0  0  0  0  0  0  0  0  0  0
    1.5000    7.7942    0.0000 C   0  0  0  0  0  0  0  0  0  0  0  0
    3.0000    7.7942    0.0000 C   0  0  0  0  0  0  0  0  0  0  0  0
    3.7500    9.0933    0.0000 C   0  0  0  0  0  0  0  0  0  0  0  0
    5.2500    9.0933    0.0000 C   0  0  0  0  0  0  0  0  0  0  0  0
    6.0000    7.7942    0.0000 O   0  0  0  0  0  0  0  0  0  0  0  0
    6.0000   10.3923    0.0000 O   0  0  0  0  0  0  0  0  0  0  0  0
   -0.7500    6.4952    0.0000 C   0  0  0  0  0  0  0  0  0  0  0  0
   -1.5000    5.1962    0.0000 C   0  0  0  0  0  0  0  0  0  0  0  0
   -1.5000    0.0000    0.0000 N   0  0  0  0  0  0  0  0  0  0  0  0
   -0.7500   -1.2990    0.0000 C   0  0  0  0  0  0  0  0  0  0  0  0
  1  2  1  0
  2  3  1  0
  3  4  2  0
  3  5  1  0
  5  6  1  0
  6  7  2  0
  7  8  1  0
  7  9  1  0
  9 10  2  0
 10 11  1  0
 11 12  2  0
 12 13  1  0
  5 14  2  0
 14 15  1  0
 15 16  2  0
 16 17  1  0
 17 18  2  0
 18 19  1  0
 19 20  1  0
 20 21  2  0
 21 22  1  0
 22 23  2  0
 23 24  1  0
 24 25  1  0
 25 26  1  0
 26 27  1  0
 27 28  2  0
 27 29  1  0
 23 30  1  0
 30 31  2  0
 18 32  1  0
 32 33  2  0
 33  2  1  0
 12  6  1  0
 33 15  1  0
 31 20  1  0
M  END
>  <Compound_ID>  (64) 
CHEMBL113070

>  <Active>  (64) 
1

>  <Smiles>  (64) 
Cn1c(=O)c(-c2c(Cl)cccc2Cl)cc2cnc(Nc3ccc(CCCC(=O)O)cc3)nc21

>  <canonical_smi>  (64) 
Cn1c(=O)c(-c2c(Cl)cccc2Cl)cc2cnc(Nc3ccc(CCCC(=O)O)cc3)nc21

>  <Set>  (64) 
G2 active

>  <Set_type>  (64) 
Train

>  <MW>  (64) 
483.36

>  <HBD>  (64) 
2

>  <HBA>  (64) 
6

>  <NRB>  (64) 
7

>  <NR>  (64) 
4

>  <NAR>  (64) 
4

>  <PSA>  (64) 
97.11

>  <Standard Type>  (64) 
nan

>  <Standard Relation>  (64) 
nan

>  <Standard Units>  (64) 
nan

>  <Standard Value>  (64) 
nan

>  <Assay ChEMBL ID>  (64) 
nan

>  <Assay Description>  (64) 
nan

>  <BAO Label>  (64) 
nan

$$$$

     RDKit          2D

 37 42  0  0  0  0  0  0  0  0999 V2000
    2.6401   -3.1891    0.0000 C   0  0  0  0  0  0  0  0  0  0  0  0
    1.2135   -2.7256    0.0000 N   0  0  0  0  0  0  0  0  0  0  0  0
    0.7500   -1.2990    0.0000 C   0  0  0  0  0  0  0  0  0  0  0  0
    1.5000    0.0000    0.0000 C   0  0  0  0  0  0  0  0  0  0  0  0
    0.7500    1.2990    0.0000 C   0  0  0  0  0  0  0  0  0  0  0  0
    1.5000    2.5981    0.0000 S   0  0  0  0  0  0  0  0  0  0  0  0
    0.7500    3.8971    0.0000 O   0  0  0  0  0  0  0  0  0  0  0  0
    3.0000    2.5981    0.0000 C   0  0  0  0  0  0  0  0  0  0  0  0
    3.7500    3.8971    0.0000 C   0  0  0  0  0  0  0  0  0  0  0  0
    5.2500    3.8971    0.0000 C   0  0  0  0  0  0  0  0  0  0  0  0
    6.0000    5.1962    0.0000 N   0  0  0  0  0  0  0  0  0  0  0  0
    5.3899    6.5665    0.0000 C   0  0  0  0  0  0  0  0  0  0  0  0
    6.5046    7.5702    0.0000 C   0  0  0  0  0  0  0  0  0  0  0  0
    7.8037    6.8202    0.0000 C   0  0  0  0  0  0  0  0  0  0  0  0
    7.4918    5.3529    0.0000 C   0  0  0  0  0  0  0  0  0  0  0  0
   -0.7500    1.2990    0.0000 C   0  0  0  0  0  0  0  0  0  0  0  0
   -1.5000    2.5981    0.0000 O   0  0  0  0  0  0  0  0  0  0  0  0
   -1.5000    0.0000    0.0000 C   0  0  0  0  0  0  0  0  0  0  0  0
   -0.7500   -1.2990    0.0000 C   0  0  0  0  0  0  0  0  0  0  0  0
   -1.2135   -2.7256    0.0000 C   0  0  0  0  0  0  0  0  0  0  0  0
   -2.5838   -3.3357    0.0000 C   0  0  0  0  0  0  0  0  0  0  0  0
   -2.7406   -4.8275    0.0000 C   0  0  0  0  0  0  0  0  0  0  0  0
   -1.5271   -5.7092    0.0000 C   0  0  0  0  0  0  0  0  0  0  0  0
   -1.6839   -7.2010    0.0000 C   0  0  0  0  0  0  0  0  0  0  0  0
   -3.0542   -7.8111    0.0000 C   0  0  0  0  0  0  0  0  0  0  0  0
   -3.2110   -9.3029    0.0000 C   0  0  0  0  0  0  0  0  0  0  0  0
   -1.9975  -10.1845    0.0000 C   0  0  0  0  0  0  0  0  0  0  0  0
   -0.6272   -9.5744    0.0000 C   0  0  0  0  0  0  0  0  0  0  0  0
   -0.4704   -8.0826    0.0000 C   0  0  0  0  0  0  0  0  0  0  0  0
    0.8999   -7.4725    0.0000 Cl  0  0  0  0  0  0  0  0  0  0  0  0
   -0.1568   -5.0991    0.0000 C   0  0  0  0  0  0  0  0  0  0  0  0
   -0.0000   -3.6073    0.0000 C   0  0  0  0  0  0  0  0  0  0  0  0
   -4.2079   -5.1394    0.0000 C   0  0  0  0  0  0  0  0  0  0  0  0
   -4.8180   -6.5097    0.0000 O   0  0  0  0  0  0  0  0  0  0  0  0
   -4.9579   -3.8403    0.0000 N   0  0  0  0  0  0  0  0  0  0  0  0
   -3.9542   -2.7256    0.0000 C   0  0  0  0  0  0  0  0  0  0  0  0
   -4.2660   -1.2584    0.0000 O   0  0  0  0  0  0  0  0  0  0  0  0
  1  2  1  0
  2  3  1  0
  3  4  2  0
  4  5  1  0
  5  6  1  0
  6  7  2  0
  6  8  1  0
  8  9  1  0
  9 10  1  0
 10 11  1  0
 11 12  1  0
 12 13  1  0
 13 14  1  0
 14 15  1  0
  5 16  2  0
 16 17  1  0
 16 18  1  0
 18 19  2  0
 19 20  1  0
 20 21  2  0
 21 22  1  0
 22 23  2  0
 23 24  1  0
 24 25  2  0
 25 26  1  0
 26 27  2  0
 27 28  1  0
 28 29  2  0
 29 30  1  0
 23 31  1  0
 31 32  2  0
 22 33  1  0
 33 34  2  0
 33 35  1  0
 35 36  1  0
 36 37  2  0
 32  2  1  0
 19  3  1  0
 32 20  1  0
 15 11  1  0
 36 21  1  0
 29 24  1  0
M  END
>  <Compound_ID>  (65) 
CHEMBL270866

>  <Active>  (65) 
1

>  <Smiles>  (65) 
Cn1c2cc(S(=O)CCCN3CCCC3)c(O)cc2c2c3c(c(-c4ccccc4Cl)cc21)C(=O)NC3=O

>  <canonical_smi>  (65) 
Cn1c2cc(S(=O)CCCN3CCCC3)c(O)cc2c2c3c(c(-c4ccccc4Cl)cc21)C(=O)NC3=O

>  <Set>  (65) 
G2 active

>  <Set_type>  (65) 
Train

>  <MW>  (65) 
536.05

>  <HBD>  (65) 
2

>  <HBA>  (65) 
5

>  <NRB>  (65) 
6

>  <NR>  (65) 
6

>  <NAR>  (65) 
4

>  <PSA>  (65) 
91.64

>  <Standard Type>  (65) 
nan

>  <Standard Relation>  (65) 
nan

>  <Standard Units>  (65) 
nan

>  <Standard Value>  (65) 
nan

>  <Assay ChEMBL ID>  (65) 
nan

>  <Assay Description>  (65) 
nan

>  <BAO Label>  (65) 
nan

$$$$

     RDKit          2D

 35 40  0  0  0  0  0  0  0  0999 V2000
   -4.8180   -6.5097    0.0000 O   0  0  0  0  0  0  0  0  0  0  0  0
   -4.2079   -5.1394    0.0000 C   0  0  0  0  0  0  0  0  0  0  0  0
   -4.9579   -3.8403    0.0000 N   0  0  0  0  0  0  0  0  0  0  0  0
   -3.9542   -2.7256    0.0000 C   0  0  0  0  0  0  0  0  0  0  0  0
   -4.2660   -1.2584    0.0000 O   0  0  0  0  0  0  0  0  0  0  0  0
   -2.5838   -3.3357    0.0000 C   0  0  0  0  0  0  0  0  0  0  0  0
   -2.7406   -4.8275    0.0000 C   0  0  0  0  0  0  0  0  0  0  0  0
   -1.5271   -5.7092    0.0000 C   0  0  0  0  0  0  0  0  0  0  0  0
   -1.6839   -7.2010    0.0000 C   0  0  0  0  0  0  0  0  0  0  0  0
   -3.0542   -7.8111    0.0000 C   0  0  0  0  0  0  0  0  0  0  0  0
   -3.2110   -9.3029    0.0000 C   0  0  0  0  0  0  0  0  0  0  0  0
   -1.9975  -10.1845    0.0000 C   0  0  0  0  0  0  0  0  0  0  0  0
   -0.6272   -9.5744    0.0000 C   0  0  0  0  0  0  0  0  0  0  0  0
   -0.4704   -8.0826    0.0000 C   0  0  0  0  0  0  0  0  0  0  0  0
    0.8999   -7.4725    0.0000 Cl  0  0  0  0  0  0  0  0  0  0  0  0
   -0.1568   -5.0991    0.0000 C   0  0  0  0  0  0  0  0  0  0  0  0
   -0.0000   -3.6073    0.0000 C   0  0  0  0  0  0  0  0  0  0  0  0
    1.2135   -2.7256    0.0000 N   0  0  0  0  0  0  0  0  0  0  0  0
    0.7500   -1.2990    0.0000 C   0  0  0  0  0  0  0  0  0  0  0  0
    1.5000    0.0000    0.0000 C   0  0  0  0  0  0  0  0  0  0  0  0
    0.7500    1.2990    0.0000 C   0  0  0  0  0  0  0  0  0  0  0  0
    1.5000    2.5981    0.0000 O   0  0  0  0  0  0  0  0  0  0  0  0
    3.0000    2.5981    0.0000 C   0  0  0  0  0  0  0  0  0  0  0  0
    3.7500    3.8971    0.0000 C   0  0  0  0  0  0  0  0  0  0  0  0
    5.2500    3.8971    0.0000 C   0  0  0  0  0  0  0  0  0  0  0  0
    6.0000    5.1962    0.0000 N   0  0  0  0  0  0  0  0  0  0  0  0
    5.3899    6.5665    0.0000 C   0  0  0  0  0  0  0  0  0  0  0  0
    6.5046    7.5702    0.0000 C   0  0  0  0  0  0  0  0  0  0  0  0
    7.8037    6.8202    0.0000 C   0  0  0  0  0  0  0  0  0  0  0  0
    7.4918    5.3529    0.0000 C   0  0  0  0  0  0  0  0  0  0  0  0
   -0.7500    1.2990    0.0000 C   0  0  0  0  0  0  0  0  0  0  0  0
   -1.5000    2.5981    0.0000 O   0  0  0  0  0  0  0  0  0  0  0  0
   -1.5000    0.0000    0.0000 C   0  0  0  0  0  0  0  0  0  0  0  0
   -0.7500   -1.2990    0.0000 C   0  0  0  0  0  0  0  0  0  0  0  0
   -1.2135   -2.7256    0.0000 C   0  0  0  0  0  0  0  0  0  0  0  0
  1  2  2  0
  2  3  1  0
  3  4  1  0
  4  5  2  0
  4  6  1  0
  6  7  2  0
  7  8  1  0
  8  9  1  0
  9 10  2  0
 10 11  1  0
 11 12  2  0
 12 13  1  0
 13 14  2  0
 14 15  1  0
  8 16  2  0
 16 17  1  0
 17 18  1  0
 18 19  1  0
 19 20  2  0
 20 21  1  0
 21 22  1  0
 22 23  1  0
 23 24  1  0
 24 25  1  0
 25 26  1  0
 26 27  1  0
 27 28  1  0
 28 29  1  0
 29 30  1  0
 21 31  2  0
 31 32  1  0
 31 33  1  0
 33 34  2  0
 34 35  1  0
  7  2  1  0
 14  9  1  0
 35 17  2  0
 35  6  1  0
 34 19  1  0
 30 26  1  0
M  END
>  <Compound_ID>  (66) 
CHEMBL271071

>  <Active>  (66) 
1

>  <Smiles>  (66) 
O=C1NC(=O)c2c1c(-c1ccccc1Cl)cc1[nH]c3cc(OCCCN4CCCC4)c(O)cc3c21

>  <canonical_smi>  (66) 
O=C1NC(=O)c2c1c(-c1ccccc1Cl)cc1[nH]c3cc(OCCCN4CCCC4)c(O)cc3c21

>  <Set>  (66) 
G2 active

>  <Set_type>  (66) 
Train

>  <MW>  (66) 
489.96

>  <HBD>  (66) 
3

>  <HBA>  (66) 
5

>  <NRB>  (66) 
6

>  <NR>  (66) 
6

>  <NAR>  (66) 
4

>  <PSA>  (66) 
94.66

>  <Standard Type>  (66) 
nan

>  <Standard Relation>  (66) 
nan

>  <Standard Units>  (66) 
nan

>  <Standard Value>  (66) 
nan

>  <Assay ChEMBL ID>  (66) 
nan

>  <Assay Description>  (66) 
nan

>  <BAO Label>  (66) 
nan

$$$$

     RDKit          2D

 36 41  0  0  0  0  0  0  0  0999 V2000
    2.6401   -3.1891    0.0000 C   0  0  0  0  0  0  0  0  0  0  0  0
    1.2135   -2.7256    0.0000 N   0  0  0  0  0  0  0  0  0  0  0  0
    0.7500   -1.2990    0.0000 C   0  0  0  0  0  0  0  0  0  0  0  0
    1.5000    0.0000    0.0000 C   0  0  0  0  0  0  0  0  0  0  0  0
    0.7500    1.2990    0.0000 C   0  0  0  0  0  0  0  0  0  0  0  0
    1.5000    2.5981    0.0000 C   0  0  0  0  0  0  0  0  0  0  0  0
    3.0000    2.5981    0.0000 C   0  0  0  0  0  0  0  0  0  0  0  0
    3.7500    3.8971    0.0000 C   0  0  0  0  0  0  0  0  0  0  0  0
    5.2500    3.8971    0.0000 C   0  0  0  0  0  0  0  0  0  0  0  0
    6.0000    5.1962    0.0000 N   0  0  0  0  0  0  0  0  0  0  0  0
    5.3899    6.5665    0.0000 C   0  0  0  0  0  0  0  0  0  0  0  0
    6.5046    7.5702    0.0000 C   0  0  0  0  0  0  0  0  0  0  0  0
    7.8037    6.8202    0.0000 C   0  0  0  0  0  0  0  0  0  0  0  0
    7.4918    5.3529    0.0000 C   0  0  0  0  0  0  0  0  0  0  0  0
   -0.7500    1.2990    0.0000 C   0  0  0  0  0  0  0  0  0  0  0  0
   -1.5000    2.5981    0.0000 O   0  0  0  0  0  0  0  0  0  0  0  0
   -1.5000    0.0000    0.0000 C   0  0  0  0  0  0  0  0  0  0  0  0
   -0.7500   -1.2990    0.0000 C   0  0  0  0  0  0  0  0  0  0  0  0
   -1.2135   -2.7256    0.0000 C   0  0  0  0  0  0  0  0  0  0  0  0
   -2.5838   -3.3357    0.0000 C   0  0  0  0  0  0  0  0  0  0  0  0
   -2.7406   -4.8275    0.0000 C   0  0  0  0  0  0  0  0  0  0  0  0
   -1.5271   -5.7092    0.0000 C   0  0  0  0  0  0  0  0  0  0  0  0
   -1.6839   -7.2010    0.0000 C   0  0  0  0  0  0  0  0  0  0  0  0
   -3.0542   -7.8111    0.0000 C   0  0  0  0  0  0  0  0  0  0  0  0
   -3.2110   -9.3029    0.0000 C   0  0  0  0  0  0  0  0  0  0  0  0
   -1.9975  -10.1845    0.0000 C   0  0  0  0  0  0  0  0  0  0  0  0
   -0.6272   -9.5744    0.0000 C   0  0  0  0  0  0  0  0  0  0  0  0
   -0.4704   -8.0826    0.0000 C   0  0  0  0  0  0  0  0  0  0  0  0
    0.8999   -7.4725    0.0000 Cl  0  0  0  0  0  0  0  0  0  0  0  0
   -0.1568   -5.0991    0.0000 C   0  0  0  0  0  0  0  0  0  0  0  0
   -0.0000   -3.6073    0.0000 C   0  0  0  0  0  0  0  0  0  0  0  0
   -4.2079   -5.1394    0.0000 C   0  0  0  0  0  0  0  0  0  0  0  0
   -4.8180   -6.5097    0.0000 O   0  0  0  0  0  0  0  0  0  0  0  0
   -4.9579   -3.8403    0.0000 N   0  0  0  0  0  0  0  0  0  0  0  0
   -3.9542   -2.7256    0.0000 C   0  0  0  0  0  0  0  0  0  0  0  0
   -4.2660   -1.2584    0.0000 O   0  0  0  0  0  0  0  0  0  0  0  0
  1  2  1  0
  2  3  1  0
  3  4  2  0
  4  5  1  0
  5  6  1  0
  6  7  1  0
  7  8  1  0
  8  9  1  0
  9 10  1  0
 10 11  1  0
 11 12  1  0
 12 13  1  0
 13 14  1  0
  5 15  2  0
 15 16  1  0
 15 17  1  0
 17 18  2  0
 18 19  1  0
 19 20  2  0
 20 21  1  0
 21 22  2  0
 22 23  1  0
 23 24  2  0
 24 25  1  0
 25 26  2  0
 26 27  1  0
 27 28  2  0
 28 29  1  0
 22 30  1  0
 30 31  2  0
 21 32  1  0
 32 33  2  0
 32 34  1  0
 34 35  1  0
 35 36  2  0
 31  2  1  0
 18  3  1  0
 31 19  1  0
 14 10  1  0
 35 20  1  0
 28 23  1  0
M  END
>  <Compound_ID>  (67) 
CHEMBL271084

>  <Active>  (67) 
1

>  <Smiles>  (67) 
Cn1c2cc(CCCCN3CCCC3)c(O)cc2c2c3c(c(-c4ccccc4Cl)cc21)C(=O)NC3=O

>  <canonical_smi>  (67) 
Cn1c2cc(CCCCN3CCCC3)c(O)cc2c2c3c(c(-c4ccccc4Cl)cc21)C(=O)NC3=O

>  <Set>  (67) 
G2 active

>  <Set_type>  (67) 
Train

>  <MW>  (67) 
502.01

>  <HBD>  (67) 
2

>  <HBA>  (67) 
4

>  <NRB>  (67) 
6

>  <NR>  (67) 
6

>  <NAR>  (67) 
4

>  <PSA>  (67) 
74.57

>  <Standard Type>  (67) 
nan

>  <Standard Relation>  (67) 
nan

>  <Standard Units>  (67) 
nan

>  <Standard Value>  (67) 
nan

>  <Assay ChEMBL ID>  (67) 
nan

>  <Assay Description>  (67) 
nan

>  <BAO Label>  (67) 
nan

$$$$

     RDKit          2D

 35 38  0  0  0  0  0  0  0  0999 V2000
   -3.0000   -2.5981    0.0000 C   0  0  0  0  0  0  0  0  0  0  0  0
   -1.5000   -2.5981    0.0000 N   0  0  0  0  0  0  0  0  0  0  0  0
   -0.7500   -3.8971    0.0000 C   0  0  0  0  0  0  0  0  0  0  0  0
   -1.5000   -5.1962    0.0000 O   0  0  0  0  0  0  0  0  0  0  0  0
    0.7500   -3.8971    0.0000 C   0  0  0  0  0  0  0  0  0  0  0  0
    1.5000   -5.1962    0.0000 C   0  0  0  0  0  0  0  0  0  0  0  0
    0.7500   -6.4952    0.0000 C   0  0  0  0  0  0  0  0  0  0  0  0
   -0.7500   -6.4952    0.0000 Cl  0  0  0  0  0  0  0  0  0  0  0  0
    1.5000   -7.7942    0.0000 C   0  0  0  0  0  0  0  0  0  0  0  0
    3.0000   -7.7942    0.0000 C   0  0  0  0  0  0  0  0  0  0  0  0
    3.7500   -9.0933    0.0000 O   0  0  0  0  0  0  0  0  0  0  0  0
    3.7500   -6.4952    0.0000 C   0  0  0  0  0  0  0  0  0  0  0  0
    3.0000   -5.1962    0.0000 C   0  0  0  0  0  0  0  0  0  0  0  0
    3.7500   -3.8971    0.0000 Cl  0  0  0  0  0  0  0  0  0  0  0  0
    1.5000   -2.5981    0.0000 C   0  0  0  0  0  0  0  0  0  0  0  0
    0.7500   -1.2990    0.0000 C   0  0  0  0  0  0  0  0  0  0  0  0
    1.5000    0.0000    0.0000 C   0  0  0  0  0  0  0  0  0  0  0  0
    0.7500    1.2990    0.0000 N   0  0  0  0  0  0  0  0  0  0  0  0
   -0.7500    1.2990    0.0000 C   0  0  0  0  0  0  0  0  0  0  0  0
   -1.5000    2.5981    0.0000 N   0  0  0  0  0  0  0  0  0  0  0  0
   -0.7500    3.8971    0.0000 C   0  0  0  0  0  0  0  0  0  0  0  0
    0.7500    3.8971    0.0000 C   0  0  0  0  0  0  0  0  0  0  0  0
    1.5000    5.1962    0.0000 C   0  0  0  0  0  0  0  0  0  0  0  0
    0.7500    6.4952    0.0000 C   0  0  0  0  0  0  0  0  0  0  0  0
    1.5000    7.7942    0.0000 O   0  0  0  0  0  0  0  0  0  0  0  0
    3.0000    7.7942    0.0000 C   0  0  0  0  0  0  0  0  0  0  0  0
    3.7500    9.0933    0.0000 C   0  0  0  0  0  0  0  0  0  0  0  0
    5.2500    9.0933    0.0000 C   0  0  0  0  0  0  0  0  0  0  0  0
    6.0000   10.3923    0.0000 C   0  0  0  0  0  0  0  0  0  0  0  0
    5.2500   11.6913    0.0000 O   0  0  0  0  0  0  0  0  0  0  0  0
    7.5000   10.3923    0.0000 O   0  0  0  0  0  0  0  0  0  0  0  0
   -0.7500    6.4952    0.0000 C   0  0  0  0  0  0  0  0  0  0  0  0
   -1.5000    5.1962    0.0000 C   0  0  0  0  0  0  0  0  0  0  0  0
   -1.5000    0.0000    0.0000 N   0  0  0  0  0  0  0  0  0  0  0  0
   -0.7500   -1.2990    0.0000 C   0  0  0  0  0  0  0  0  0  0  0  0
  1  2  1  0
  2  3  1  0
  3  4  2  0
  3  5  1  0
  5  6  1  0
  6  7  2  0
  7  8  1  0
  7  9  1  0
  9 10  2  0
 10 11  1  0
 10 12  1  0
 12 13  2  0
 13 14  1  0
  5 15  2  0
 15 16  1  0
 16 17  2  0
 17 18  1  0
 18 19  2  0
 19 20  1  0
 20 21  1  0
 21 22  2  0
 22 23  1  0
 23 24  2  0
 24 25  1  0
 25 26  1  0
 26 27  1  0
 27 28  1  0
 28 29  1  0
 29 30  2  0
 29 31  1  0
 24 32  1  0
 32 33  2  0
 19 34  1  0
 34 35  2  0
 35  2  1  0
 13  6  1  0
 35 16  1  0
 33 21  1  0
M  END
>  <Compound_ID>  (68) 
CHEMBL181314

>  <Active>  (68) 
1

>  <Smiles>  (68) 
Cn1c(=O)c(-c2c(Cl)cc(O)cc2Cl)cc2cnc(Nc3ccc(OCCCC(=O)O)cc3)nc21

>  <canonical_smi>  (68) 
Cn1c(=O)c(-c2c(Cl)cc(O)cc2Cl)cc2cnc(Nc3ccc(OCCCC(=O)O)cc3)nc21

>  <Set>  (68) 
G2 active

>  <Set_type>  (68) 
Train

>  <MW>  (68) 
515.35

>  <HBD>  (68) 
3

>  <HBA>  (68) 
8

>  <NRB>  (68) 
8

>  <NR>  (68) 
4

>  <NAR>  (68) 
4

>  <PSA>  (68) 
126.57

>  <Standard Type>  (68) 
nan

>  <Standard Relation>  (68) 
nan

>  <Standard Units>  (68) 
nan

>  <Standard Value>  (68) 
nan

>  <Assay ChEMBL ID>  (68) 
nan

>  <Assay Description>  (68) 
nan

>  <BAO Label>  (68) 
nan

$$$$

     RDKit          2D

 35 38  0  0  0  0  0  0  0  0999 V2000
   -3.0000   -2.5981    0.0000 C   0  0  0  0  0  0  0  0  0  0  0  0
   -1.5000   -2.5981    0.0000 N   0  0  0  0  0  0  0  0  0  0  0  0
   -0.7500   -3.8971    0.0000 C   0  0  0  0  0  0  0  0  0  0  0  0
   -1.5000   -5.1962    0.0000 O   0  0  0  0  0  0  0  0  0  0  0  0
    0.7500   -3.8971    0.0000 C   0  0  0  0  0  0  0  0  0  0  0  0
    1.5000   -5.1962    0.0000 C   0  0  0  0  0  0  0  0  0  0  0  0
    0.7500   -6.4952    0.0000 C   0  0  0  0  0  0  0  0  0  0  0  0
   -0.7500   -6.4952    0.0000 Cl  0  0  0  0  0  0  0  0  0  0  0  0
    1.5000   -7.7942    0.0000 C   0  0  0  0  0  0  0  0  0  0  0  0
    3.0000   -7.7942    0.0000 C   0  0  0  0  0  0  0  0  0  0  0  0
    3.7500   -6.4952    0.0000 C   0  0  0  0  0  0  0  0  0  0  0  0
    5.2500   -6.4952    0.0000 O   0  0  0  0  0  0  0  0  0  0  0  0
    3.0000   -5.1962    0.0000 C   0  0  0  0  0  0  0  0  0  0  0  0
    3.7500   -3.8971    0.0000 Cl  0  0  0  0  0  0  0  0  0  0  0  0
    1.5000   -2.5981    0.0000 C   0  0  0  0  0  0  0  0  0  0  0  0
    0.7500   -1.2990    0.0000 C   0  0  0  0  0  0  0  0  0  0  0  0
    1.5000    0.0000    0.0000 C   0  0  0  0  0  0  0  0  0  0  0  0
    0.7500    1.2990    0.0000 N   0  0  0  0  0  0  0  0  0  0  0  0
   -0.7500    1.2990    0.0000 C   0  0  0  0  0  0  0  0  0  0  0  0
   -1.5000    2.5981    0.0000 N   0  0  0  0  0  0  0  0  0  0  0  0
   -0.7500    3.8971    0.0000 C   0  0  0  0  0  0  0  0  0  0  0  0
    0.7500    3.8971    0.0000 C   0  0  0  0  0  0  0  0  0  0  0  0
    1.5000    5.1962    0.0000 C   0  0  0  0  0  0  0  0  0  0  0  0
    0.7500    6.4952    0.0000 C   0  0  0  0  0  0  0  0  0  0  0  0
    1.5000    7.7942    0.0000 O   0  0  0  0  0  0  0  0  0  0  0  0
    3.0000    7.7942    0.0000 C   0  0  0  0  0  0  0  0  0  0  0  0
    3.7500    9.0933    0.0000 C   0  0  0  0  0  0  0  0  0  0  0  0
    5.2500    9.0933    0.0000 C   0  0  0  0  0  0  0  0  0  0  0  0
    6.0000   10.3923    0.0000 C   0  0  0  0  0  0  0  0  0  0  0  0
    5.2500   11.6913    0.0000 O   0  0  0  0  0  0  0  0  0  0  0  0
    7.5000   10.3923    0.0000 O   0  0  0  0  0  0  0  0  0  0  0  0
   -0.7500    6.4952    0.0000 C   0  0  0  0  0  0  0  0  0  0  0  0
   -1.5000    5.1962    0.0000 C   0  0  0  0  0  0  0  0  0  0  0  0
   -1.5000    0.0000    0.0000 N   0  0  0  0  0  0  0  0  0  0  0  0
   -0.7500   -1.2990    0.0000 C   0  0  0  0  0  0  0  0  0  0  0  0
  1  2  1  0
  2  3  1  0
  3  4  2  0
  3  5  1  0
  5  6  1  0
  6  7  2  0
  7  8  1  0
  7  9  1  0
  9 10  2  0
 10 11  1  0
 11 12  1  0
 11 13  2  0
 13 14  1  0
  5 15  2  0
 15 16  1  0
 16 17  2  0
 17 18  1  0
 18 19  2  0
 19 20  1  0
 20 21  1  0
 21 22  2  0
 22 23  1  0
 23 24  2  0
 24 25  1  0
 25 26  1  0
 26 27  1  0
 27 28  1  0
 28 29  1  0
 29 30  2  0
 29 31  1  0
 24 32  1  0
 32 33  2  0
 19 34  1  0
 34 35  2  0
 35  2  1  0
 13  6  1  0
 35 16  1  0
 33 21  1  0
M  END
>  <Compound_ID>  (69) 
CHEMBL366922

>  <Active>  (69) 
1

>  <Smiles>  (69) 
Cn1c(=O)c(-c2c(Cl)ccc(O)c2Cl)cc2cnc(Nc3ccc(OCCCC(=O)O)cc3)nc21

>  <canonical_smi>  (69) 
Cn1c(=O)c(-c2c(Cl)ccc(O)c2Cl)cc2cnc(Nc3ccc(OCCCC(=O)O)cc3)nc21

>  <Set>  (69) 
G2 active

>  <Set_type>  (69) 
Train

>  <MW>  (69) 
515.35

>  <HBD>  (69) 
3

>  <HBA>  (69) 
8

>  <NRB>  (69) 
8

>  <NR>  (69) 
4

>  <NAR>  (69) 
4

>  <PSA>  (69) 
126.57

>  <Standard Type>  (69) 
nan

>  <Standard Relation>  (69) 
nan

>  <Standard Units>  (69) 
nan

>  <Standard Value>  (69) 
nan

>  <Assay ChEMBL ID>  (69) 
nan

>  <Assay Description>  (69) 
nan

>  <BAO Label>  (69) 
nan

$$$$

     RDKit          2D

 24 28  0  0  0  0  0  0  0  0999 V2000
   -4.8180   -6.5097    0.0000 O   0  0  0  0  0  0  0  0  0  0  0  0
   -4.2079   -5.1394    0.0000 C   0  0  0  0  0  0  0  0  0  0  0  0
   -4.9579   -3.8403    0.0000 N   0  0  0  0  0  0  0  0  0  0  0  0
   -3.9542   -2.7256    0.0000 C   0  0  0  0  0  0  0  0  0  0  0  0
   -4.2660   -1.2584    0.0000 O   0  0  0  0  0  0  0  0  0  0  0  0
   -2.5838   -3.3357    0.0000 C   0  0  0  0  0  0  0  0  0  0  0  0
   -2.7406   -4.8275    0.0000 C   0  0  0  0  0  0  0  0  0  0  0  0
   -1.5271   -5.7092    0.0000 C   0  0  0  0  0  0  0  0  0  0  0  0
   -1.6839   -7.2010    0.0000 C   0  0  0  0  0  0  0  0  0  0  0  0
   -0.5692   -8.2047    0.0000 C   0  0  0  0  0  0  0  0  0  0  0  0
   -1.1793   -9.5750    0.0000 C   0  0  0  0  0  0  0  0  0  0  0  0
   -2.6711   -9.4182    0.0000 S   0  0  0  0  0  0  0  0  0  0  0  0
   -2.9829   -7.9510    0.0000 C   0  0  0  0  0  0  0  0  0  0  0  0
   -0.1568   -5.0991    0.0000 C   0  0  0  0  0  0  0  0  0  0  0  0
   -0.0000   -3.6073    0.0000 C   0  0  0  0  0  0  0  0  0  0  0  0
    1.2135   -2.7256    0.0000 N   0  0  0  0  0  0  0  0  0  0  0  0
    0.7500   -1.2990    0.0000 C   0  0  0  0  0  0  0  0  0  0  0  0
    1.5000    0.0000    0.0000 C   0  0  0  0  0  0  0  0  0  0  0  0
    0.7500    1.2990    0.0000 C   0  0  0  0  0  0  0  0  0  0  0  0
   -0.7500    1.2990    0.0000 C   0  0  0  0  0  0  0  0  0  0  0  0
   -1.5000    2.5981    0.0000 O   0  0  0  0  0  0  0  0  0  0  0  0
   -1.5000    0.0000    0.0000 C   0  0  0  0  0  0  0  0  0  0  0  0
   -0.7500   -1.2990    0.0000 C   0  0  0  0  0  0  0  0  0  0  0  0
   -1.2135   -2.7256    0.0000 C   0  0  0  0  0  0  0  0  0  0  0  0
  1  2  2  0
  2  3  1  0
  3  4  1  0
  4  5  2  0
  4  6  1  0
  6  7  2  0
  7  8  1  0
  8  9  1  0
  9 10  1  0
 10 11  2  0
 11 12  1  0
 12 13  1  0
  8 14  2  0
 14 15  1  0
 15 16  1  0
 16 17  1  0
 17 18  2  0
 18 19  1  0
 19 20  2  0
 20 21  1  0
 20 22  1  0
 22 23  2  0
 23 24  1  0
  7  2  1  0
 13  9  2  0
 24 15  2  0
 24  6  1  0
 23 17  1  0
M  END
>  <Compound_ID>  (70) 
CHEMBL377839

>  <Active>  (70) 
1

>  <Smiles>  (70) 
O=C1NC(=O)c2c1c(-c1ccsc1)cc1[nH]c3ccc(O)cc3c21

>  <canonical_smi>  (70) 
O=C1NC(=O)c2c1c(-c1ccsc1)cc1[nH]c3ccc(O)cc3c21

>  <Set>  (70) 
G2 active

>  <Set_type>  (70) 
Train

>  <MW>  (70) 
334.36

>  <HBD>  (70) 
3

>  <HBA>  (70) 
3

>  <NRB>  (70) 
1

>  <NR>  (70) 
5

>  <NAR>  (70) 
4

>  <PSA>  (70) 
82.19

>  <Standard Type>  (70) 
nan

>  <Standard Relation>  (70) 
nan

>  <Standard Units>  (70) 
nan

>  <Standard Value>  (70) 
nan

>  <Assay ChEMBL ID>  (70) 
nan

>  <Assay Description>  (70) 
nan

>  <BAO Label>  (70) 
nan

$$$$

     RDKit          2D

 38 43  0  0  0  0  0  0  0  0999 V2000
    2.6401   -3.1891    0.0000 C   0  0  0  0  0  0  0  0  0  0  0  0
    1.2135   -2.7256    0.0000 N   0  0  0  0  0  0  0  0  0  0  0  0
    0.7500   -1.2990    0.0000 C   0  0  0  0  0  0  0  0  0  0  0  0
    1.5000    0.0000    0.0000 C   0  0  0  0  0  0  0  0  0  0  0  0
    0.7500    1.2990    0.0000 C   0  0  0  0  0  0  0  0  0  0  0  0
    1.5000    2.5981    0.0000 S   0  0  0  0  0  0  0  0  0  0  0  0
    2.7990    1.8481    0.0000 O   0  0  0  0  0  0  0  0  0  0  0  0
    0.2010    3.3481    0.0000 O   0  0  0  0  0  0  0  0  0  0  0  0
    2.2500    3.8971    0.0000 N   0  0  0  0  0  0  0  0  0  0  0  0
    1.5000    5.1962    0.0000 C   0  0  0  0  0  0  0  0  0  0  0  0
    2.2500    6.4952    0.0000 C   0  0  0  0  0  0  0  0  0  0  0  0
    1.5000    7.7942    0.0000 N   0  0  0  0  0  0  0  0  0  0  0  0
    0.0082    7.9510    0.0000 C   0  0  0  0  0  0  0  0  0  0  0  0
   -0.3037    9.4182    0.0000 C   0  0  0  0  0  0  0  0  0  0  0  0
    0.9954   10.1682    0.0000 C   0  0  0  0  0  0  0  0  0  0  0  0
    2.1101    9.1645    0.0000 C   0  0  0  0  0  0  0  0  0  0  0  0
   -0.7500    1.2990    0.0000 C   0  0  0  0  0  0  0  0  0  0  0  0
   -1.5000    2.5981    0.0000 O   0  0  0  0  0  0  0  0  0  0  0  0
   -1.5000    0.0000    0.0000 C   0  0  0  0  0  0  0  0  0  0  0  0
   -0.7500   -1.2990    0.0000 C   0  0  0  0  0  0  0  0  0  0  0  0
   -1.2135   -2.7256    0.0000 C   0  0  0  0  0  0  0  0  0  0  0  0
   -2.5838   -3.3357    0.0000 C   0  0  0  0  0  0  0  0  0  0  0  0
   -2.7406   -4.8275    0.0000 C   0  0  0  0  0  0  0  0  0  0  0  0
   -1.5271   -5.7092    0.0000 C   0  0  0  0  0  0  0  0  0  0  0  0
   -1.6839   -7.2010    0.0000 C   0  0  0  0  0  0  0  0  0  0  0  0
   -3.0542   -7.8111    0.0000 C   0  0  0  0  0  0  0  0  0  0  0  0
   -3.2110   -9.3029    0.0000 C   0  0  0  0  0  0  0  0  0  0  0  0
   -1.9975  -10.1845    0.0000 C   0  0  0  0  0  0  0  0  0  0  0  0
   -0.6272   -9.5744    0.0000 C   0  0  0  0  0  0  0  0  0  0  0  0
   -0.4704   -8.0826    0.0000 C   0  0  0  0  0  0  0  0  0  0  0  0
    0.8999   -7.4725    0.0000 Cl  0  0  0  0  0  0  0  0  0  0  0  0
   -0.1568   -5.0991    0.0000 C   0  0  0  0  0  0  0  0  0  0  0  0
   -0.0000   -3.6073    0.0000 C   0  0  0  0  0  0  0  0  0  0  0  0
   -4.2079   -5.1394    0.0000 C   0  0  0  0  0  0  0  0  0  0  0  0
   -4.8180   -6.5097    0.0000 O   0  0  0  0  0  0  0  0  0  0  0  0
   -4.9579   -3.8403    0.0000 N   0  0  0  0  0  0  0  0  0  0  0  0
   -3.9542   -2.7256    0.0000 C   0  0  0  0  0  0  0  0  0  0  0  0
   -4.2660   -1.2584    0.0000 O   0  0  0  0  0  0  0  0  0  0  0  0
  1  2  1  0
  2  3  1  0
  3  4  2  0
  4  5  1  0
  5  6  1  0
  6  7  2  0
  6  8  2  0
  6  9  1  0
  9 10  1  0
 10 11  1  0
 11 12  1  0
 12 13  1  0
 13 14  1  0
 14 15  1  0
 15 16  1  0
  5 17  2  0
 17 18  1  0
 17 19  1  0
 19 20  2  0
 20 21  1  0
 21 22  2  0
 22 23  1  0
 23 24  2  0
 24 25  1  0
 25 26  2  0
 26 27  1  0
 27 28  2  0
 28 29  1  0
 29 30  2  0
 30 31  1  0
 24 32  1  0
 32 33  2  0
 23 34  1  0
 34 35  2  0
 34 36  1  0
 36 37  1  0
 37 38  2  0
 33  2  1  0
 20  3  1  0
 33 21  1  0
 16 12  1  0
 37 22  1  0
 30 25  1  0
M  END
>  <Compound_ID>  (71) 
CHEMBL402093

>  <Active>  (71) 
1

>  <Smiles>  (71) 
Cn1c2cc(S(=O)(=O)NCCN3CCCC3)c(O)cc2c2c3c(c(-c4ccccc4Cl)cc21)C(=O)NC3=O

>  <canonical_smi>  (71) 
Cn1c2cc(S(=O)(=O)NCCN3CCCC3)c(O)cc2c2c3c(c(-c4ccccc4Cl)cc21)C(=O)NC3=O

>  <Set>  (71) 
G2 active

>  <Set_type>  (71) 
Train

>  <MW>  (71) 
553.04

>  <HBD>  (71) 
3

>  <HBA>  (71) 
6

>  <NRB>  (71) 
6

>  <NR>  (71) 
6

>  <NAR>  (71) 
4

>  <PSA>  (71) 
120.74

>  <Standard Type>  (71) 
nan

>  <Standard Relation>  (71) 
nan

>  <Standard Units>  (71) 
nan

>  <Standard Value>  (71) 
nan

>  <Assay ChEMBL ID>  (71) 
nan

>  <Assay Description>  (71) 
nan

>  <BAO Label>  (71) 
nan

$$$$

     RDKit          2D

 35 40  0  0  0  0  0  0  0  0999 V2000
   -4.8180   -6.5097    0.0000 O   0  0  0  0  0  0  0  0  0  0  0  0
   -4.2079   -5.1394    0.0000 C   0  0  0  0  0  0  0  0  0  0  0  0
   -4.9579   -3.8403    0.0000 N   0  0  0  0  0  0  0  0  0  0  0  0
   -3.9542   -2.7256    0.0000 C   0  0  0  0  0  0  0  0  0  0  0  0
   -4.2660   -1.2584    0.0000 O   0  0  0  0  0  0  0  0  0  0  0  0
   -2.5838   -3.3357    0.0000 C   0  0  0  0  0  0  0  0  0  0  0  0
   -2.7406   -4.8275    0.0000 C   0  0  0  0  0  0  0  0  0  0  0  0
   -1.5271   -5.7092    0.0000 C   0  0  0  0  0  0  0  0  0  0  0  0
   -1.6839   -7.2010    0.0000 C   0  0  0  0  0  0  0  0  0  0  0  0
   -3.0542   -7.8111    0.0000 C   0  0  0  0  0  0  0  0  0  0  0  0
   -3.2110   -9.3029    0.0000 C   0  0  0  0  0  0  0  0  0  0  0  0
   -1.9975  -10.1845    0.0000 C   0  0  0  0  0  0  0  0  0  0  0  0
   -0.6272   -9.5744    0.0000 C   0  0  0  0  0  0  0  0  0  0  0  0
   -0.4704   -8.0826    0.0000 C   0  0  0  0  0  0  0  0  0  0  0  0
    0.8999   -7.4725    0.0000 Cl  0  0  0  0  0  0  0  0  0  0  0  0
   -0.1568   -5.0991    0.0000 C   0  0  0  0  0  0  0  0  0  0  0  0
   -0.0000   -3.6073    0.0000 C   0  0  0  0  0  0  0  0  0  0  0  0
    1.2135   -2.7256    0.0000 N   0  0  0  0  0  0  0  0  0  0  0  0
    0.7500   -1.2990    0.0000 C   0  0  0  0  0  0  0  0  0  0  0  0
    1.5000    0.0000    0.0000 C   0  0  0  0  0  0  0  0  0  0  0  0
    0.7500    1.2990    0.0000 C   0  0  0  0  0  0  0  0  0  0  0  0
    1.5000    2.5981    0.0000 C   0  0  0  0  0  0  0  0  0  0  0  0
    3.0000    2.5981    0.0000 C   0  0  0  0  0  0  0  0  0  0  0  0
    3.7500    3.8971    0.0000 C   0  0  0  0  0  0  0  0  0  0  0  0
    5.2500    3.8971    0.0000 C   0  0  0  0  0  0  0  0  0  0  0  0
    6.0000    5.1962    0.0000 N   0  0  0  0  0  0  0  0  0  0  0  0
    5.3899    6.5665    0.0000 C   0  0  0  0  0  0  0  0  0  0  0  0
    6.5046    7.5702    0.0000 C   0  0  0  0  0  0  0  0  0  0  0  0
    7.8037    6.8202    0.0000 C   0  0  0  0  0  0  0  0  0  0  0  0
    7.4918    5.3529    0.0000 C   0  0  0  0  0  0  0  0  0  0  0  0
   -0.7500    1.2990    0.0000 C   0  0  0  0  0  0  0  0  0  0  0  0
   -1.5000    2.5981    0.0000 O   0  0  0  0  0  0  0  0  0  0  0  0
   -1.5000    0.0000    0.0000 C   0  0  0  0  0  0  0  0  0  0  0  0
   -0.7500   -1.2990    0.0000 C   0  0  0  0  0  0  0  0  0  0  0  0
   -1.2135   -2.7256    0.0000 C   0  0  0  0  0  0  0  0  0  0  0  0
  1  2  2  0
  2  3  1  0
  3  4  1  0
  4  5  2  0
  4  6  1  0
  6  7  2  0
  7  8  1  0
  8  9  1  0
  9 10  2  0
 10 11  1  0
 11 12  2  0
 12 13  1  0
 13 14  2  0
 14 15  1  0
  8 16  2  0
 16 17  1  0
 17 18  1  0
 18 19  1  0
 19 20  2  0
 20 21  1  0
 21 22  1  0
 22 23  1  0
 23 24  1  0
 24 25  1  0
 25 26  1  0
 26 27  1  0
 27 28  1  0
 28 29  1  0
 29 30  1  0
 21 31  2  0
 31 32  1  0
 31 33  1  0
 33 34  2  0
 34 35  1  0
  7  2  1  0
 14  9  1  0
 35 17  2  0
 35  6  1  0
 34 19  1  0
 30 26  1  0
M  END
>  <Compound_ID>  (72) 
CHEMBL272946

>  <Active>  (72) 
1

>  <Smiles>  (72) 
O=C1NC(=O)c2c1c(-c1ccccc1Cl)cc1[nH]c3cc(CCCCN4CCCC4)c(O)cc3c21

>  <canonical_smi>  (72) 
O=C1NC(=O)c2c1c(-c1ccccc1Cl)cc1[nH]c3cc(CCCCN4CCCC4)c(O)cc3c21

>  <Set>  (72) 
G2 active

>  <Set_type>  (72) 
Train

>  <MW>  (72) 
487.99

>  <HBD>  (72) 
3

>  <HBA>  (72) 
4

>  <NRB>  (72) 
6

>  <NR>  (72) 
6

>  <NAR>  (72) 
4

>  <PSA>  (72) 
85.43

>  <Standard Type>  (72) 
nan

>  <Standard Relation>  (72) 
nan

>  <Standard Units>  (72) 
nan

>  <Standard Value>  (72) 
nan

>  <Assay ChEMBL ID>  (72) 
nan

>  <Assay Description>  (72) 
nan

>  <BAO Label>  (72) 
nan

$$$$

     RDKit          2D

 36 41  0  0  0  0  0  0  0  0999 V2000
    4.8180   -6.5097    0.0000 O   0  0  0  0  0  0  0  0  0  0  0  0
    4.2079   -5.1394    0.0000 C   0  0  0  0  0  0  0  0  0  0  0  0
    4.9579   -3.8403    0.0000 N   0  0  0  0  0  0  0  0  0  0  0  0
    3.9542   -2.7256    0.0000 C   0  0  0  0  0  0  0  0  0  0  0  0
    4.2660   -1.2584    0.0000 O   0  0  0  0  0  0  0  0  0  0  0  0
    2.5838   -3.3357    0.0000 C   0  0  0  0  0  0  0  0  0  0  0  0
    2.7406   -4.8275    0.0000 C   0  0  0  0  0  0  0  0  0  0  0  0
    1.5271   -5.7092    0.0000 C   0  0  0  0  0  0  0  0  0  0  0  0
    1.6839   -7.2010    0.0000 C   0  0  0  0  0  0  0  0  0  0  0  0
    3.0542   -7.8111    0.0000 C   0  0  0  0  0  0  0  0  0  0  0  0
    3.2110   -9.3029    0.0000 C   0  0  0  0  0  0  0  0  0  0  0  0
    1.9975  -10.1845    0.0000 C   0  0  0  0  0  0  0  0  0  0  0  0
    0.6272   -9.5744    0.0000 C   0  0  0  0  0  0  0  0  0  0  0  0
    0.4704   -8.0826    0.0000 C   0  0  0  0  0  0  0  0  0  0  0  0
   -0.8999   -7.4725    0.0000 Cl  0  0  0  0  0  0  0  0  0  0  0  0
    0.1568   -5.0991    0.0000 C   0  0  0  0  0  0  0  0  0  0  0  0
   -0.0000   -3.6073    0.0000 C   0  0  0  0  0  0  0  0  0  0  0  0
    1.2135   -2.7256    0.0000 C   0  0  0  0  0  0  0  0  0  0  0  0
    0.7500   -1.2990    0.0000 C   0  0  0  0  0  0  0  0  0  0  0  0
    1.5000    0.0000    0.0000 C   0  0  0  0  0  0  0  0  0  0  0  0
    0.7500    1.2990    0.0000 C   0  0  0  0  0  0  0  0  0  0  0  0
    1.5000    2.5981    0.0000 O   0  0  0  0  0  0  0  0  0  0  0  0
   -0.7500    1.2990    0.0000 C   0  0  0  0  0  0  0  0  0  0  0  0
   -1.5000    0.0000    0.0000 C   0  0  0  0  0  0  0  0  0  0  0  0
   -0.7500   -1.2990    0.0000 C   0  0  0  0  0  0  0  0  0  0  0  0
   -1.2135   -2.7256    0.0000 N   0  0  0  0  0  0  0  0  0  0  0  0
   -2.6401   -3.1891    0.0000 C   0  0  0  0  0  0  0  0  0  0  0  0
   -3.7548   -2.1855    0.0000 C   0  0  0  0  0  0  0  0  0  0  0  0
   -5.1814   -2.6490    0.0000 C   0  0  0  0  0  0  0  0  0  0  0  0
   -6.2961   -1.6453    0.0000 C   0  0  0  0  0  0  0  0  0  0  0  0
   -5.9843   -0.1781    0.0000 O   0  0  0  0  0  0  0  0  0  0  0  0
   -7.7227   -2.1088    0.0000 N   0  0  0  0  0  0  0  0  0  0  0  0
   -8.1862   -3.5354    0.0000 C   0  0  0  0  0  0  0  0  0  0  0  0
   -9.6862   -3.5354    0.0000 C   0  0  0  0  0  0  0  0  0  0  0  0
  -10.1498   -2.1088    0.0000 N   0  0  0  0  0  0  0  0  0  0  0  0
   -8.9362   -1.2271    0.0000 C   0  0  0  0  0  0  0  0  0  0  0  0
  1  2  2  0
  2  3  1  0
  3  4  1  0
  4  5  2  0
  4  6  1  0
  6  7  2  0
  7  8  1  0
  8  9  1  0
  9 10  2  0
 10 11  1  0
 11 12  2  0
 12 13  1  0
 13 14  2  0
 14 15  1  0
  8 16  2  0
 16 17  1  0
 17 18  2  0
 18 19  1  0
 19 20  2  0
 20 21  1  0
 21 22  1  0
 21 23  2  0
 23 24  1  0
 24 25  2  0
 25 26  1  0
 26 27  1  0
 27 28  1  0
 28 29  1  0
 29 30  1  0
 30 31  2  0
 30 32  1  0
 32 33  1  0
 33 34  2  0
 34 35  1  0
 35 36  2  0
  7  2  1  0
 14  9  1  0
 26 17  1  0
 36 32  1  0
 18  6  1  0
 25 19  1  0
M  END
>  <Compound_ID>  (73) 
CHEMBL530112

>  <Active>  (73) 
1

>  <Smiles>  (73) 
O=C1NC(=O)c2c1c(-c1ccccc1Cl)cc1c2c2cc(O)ccc2n1CCCC(=O)n1ccnc1

>  <canonical_smi>  (73) 
O=C1NC(=O)c2c1c(-c1ccccc1Cl)cc1c2c2cc(O)ccc2n1CCCC(=O)n1ccnc1

>  <Set>  (73) 
G2 active

>  <Set_type>  (73) 
Train

>  <MW>  (73) 
498.93

>  <HBD>  (73) 
2

>  <HBA>  (73) 
5

>  <NRB>  (73) 
5

>  <NR>  (73) 
6

>  <NAR>  (73) 
5

>  <PSA>  (73) 
106.22

>  <Standard Type>  (73) 
nan

>  <Standard Relation>  (73) 
nan

>  <Standard Units>  (73) 
nan

>  <Standard Value>  (73) 
nan

>  <Assay ChEMBL ID>  (73) 
nan

>  <Assay Description>  (73) 
nan

>  <BAO Label>  (73) 
nan

$$$$

     RDKit          2D

 35 40  0  0  0  0  0  0  0  0999 V2000
    4.9032   -6.2965    0.0000 O   0  0  0  0  0  0  0  0  0  0  0  0
    4.2079   -5.1394    0.0000 C   0  0  0  0  0  0  0  0  0  0  0  0
    4.9579   -3.8403    0.0000 N   0  0  0  0  0  0  0  0  0  0  0  0
    3.9542   -2.7256    0.0000 C   0  0  0  0  0  0  0  0  0  0  0  0
    4.2660   -1.2584    0.0000 O   0  0  0  0  0  0  0  0  0  0  0  0
    2.5838   -3.3357    0.0000 C   0  0  0  0  0  0  0  0  0  0  0  0
    2.7406   -4.8275    0.0000 C   0  0  0  0  0  0  0  0  0  0  0  0
    1.5271   -5.7092    0.0000 C   0  0  0  0  0  0  0  0  0  0  0  0
    1.6839   -7.2010    0.0000 C   0  0  0  0  0  0  0  0  0  0  0  0
    3.0542   -7.8111    0.0000 C   0  0  0  0  0  0  0  0  0  0  0  0
    4.2350   -7.1566    0.0000 Cl  0  0  0  0  0  0  0  0  0  0  0  0
    3.2110   -9.3029    0.0000 C   0  0  0  0  0  0  0  0  0  0  0  0
    1.9975  -10.1845    0.0000 C   0  0  0  0  0  0  0  0  0  0  0  0
    0.6272   -9.5744    0.0000 C   0  0  0  0  0  0  0  0  0  0  0  0
    0.4704   -8.0826    0.0000 C   0  0  0  0  0  0  0  0  0  0  0  0
   -0.8999   -7.4725    0.0000 Cl  0  0  0  0  0  0  0  0  0  0  0  0
    0.1568   -5.0991    0.0000 C   0  0  0  0  0  0  0  0  0  0  0  0
   -0.0000   -3.6073    0.0000 C   0  0  0  0  0  0  0  0  0  0  0  0
    1.2135   -2.7256    0.0000 C   0  0  0  0  0  0  0  0  0  0  0  0
    0.7500   -1.2990    0.0000 C   0  0  0  0  0  0  0  0  0  0  0  0
    1.5000    0.0000    0.0000 C   0  0  0  0  0  0  0  0  0  0  0  0
    0.7500    1.2990    0.0000 C   0  0  0  0  0  0  0  0  0  0  0  0
    1.5000    2.5981    0.0000 O   0  0  0  0  0  0  0  0  0  0  0  0
   -0.7500    1.2990    0.0000 C   0  0  0  0  0  0  0  0  0  0  0  0
   -1.5000    0.0000    0.0000 C   0  0  0  0  0  0  0  0  0  0  0  0
   -0.7500   -1.2990    0.0000 C   0  0  0  0  0  0  0  0  0  0  0  0
   -1.2135   -2.7256    0.0000 N   0  0  0  0  0  0  0  0  0  0  0  0
   -2.6401   -3.1891    0.0000 C   0  0  0  0  0  0  0  0  0  0  0  0
   -3.7548   -2.1855    0.0000 C   0  0  0  0  0  0  0  0  0  0  0  0
   -5.1814   -2.6490    0.0000 C   0  0  0  0  0  0  0  0  0  0  0  0
   -6.2961   -1.6453    0.0000 N   0  0  0  0  0  0  0  0  0  0  0  0
   -7.7634   -1.9571    0.0000 C   0  0  0  0  0  0  0  0  0  0  0  0
   -8.5134   -0.6581    0.0000 C   0  0  0  0  0  0  0  0  0  0  0  0
   -7.5097    0.4566    0.0000 N   0  0  0  0  0  0  0  0  0  0  0  0
   -6.1393   -0.1535    0.0000 C   0  0  0  0  0  0  0  0  0  0  0  0
  1  2  2  0
  2  3  1  0
  3  4  1  0
  4  5  2  0
  4  6  1  0
  6  7  2  0
  7  8  1  0
  8  9  1  0
  9 10  2  0
 10 11  1  0
 10 12  1  0
 12 13  2  0
 13 14  1  0
 14 15  2  0
 15 16  1  0
  8 17  2  0
 17 18  1  0
 18 19  2  0
 19 20  1  0
 20 21  2  0
 21 22  1  0
 22 23  1  0
 22 24  2  0
 24 25  1  0
 25 26  2  0
 26 27  1  0
 27 28  1  0
 28 29  1  0
 29 30  1  0
 30 31  1  0
 31 32  1  0
 32 33  2  0
 33 34  1  0
 34 35  2  0
  7  2  1  0
 15  9  1  0
 27 18  1  0
 35 31  1  0
 19  6  1  0
 26 20  1  0
M  END
>  <Compound_ID>  (74) 
CHEMBL452829

>  <Active>  (74) 
1

>  <Smiles>  (74) 
O=C1NC(=O)c2c1c(-c1c(Cl)cccc1Cl)cc1c2c2cc(O)ccc2n1CCCn1ccnc1

>  <canonical_smi>  (74) 
O=C1NC(=O)c2c1c(-c1c(Cl)cccc1Cl)cc1c2c2cc(O)ccc2n1CCCn1ccnc1

>  <Set>  (74) 
G2 active

>  <Set_type>  (74) 
Train

>  <MW>  (74) 
505.36

>  <HBD>  (74) 
2

>  <HBA>  (74) 
4

>  <NRB>  (74) 
5

>  <NR>  (74) 
6

>  <NAR>  (74) 
5

>  <PSA>  (74) 
89.15

>  <Standard Type>  (74) 
nan

>  <Standard Relation>  (74) 
nan

>  <Standard Units>  (74) 
nan

>  <Standard Value>  (74) 
nan

>  <Assay ChEMBL ID>  (74) 
nan

>  <Assay Description>  (74) 
nan

>  <BAO Label>  (74) 
nan

$$$$

     RDKit          2D

 36 41  0  0  0  0  0  0  0  0999 V2000
    4.9032   -6.2965    0.0000 O   0  0  0  0  0  0  0  0  0  0  0  0
    4.2079   -5.1394    0.0000 C   0  0  0  0  0  0  0  0  0  0  0  0
    4.9579   -3.8403    0.0000 N   0  0  0  0  0  0  0  0  0  0  0  0
    3.9542   -2.7256    0.0000 C   0  0  0  0  0  0  0  0  0  0  0  0
    4.2660   -1.2584    0.0000 O   0  0  0  0  0  0  0  0  0  0  0  0
    2.5838   -3.3357    0.0000 C   0  0  0  0  0  0  0  0  0  0  0  0
    2.7406   -4.8275    0.0000 C   0  0  0  0  0  0  0  0  0  0  0  0
    1.5271   -5.7092    0.0000 C   0  0  0  0  0  0  0  0  0  0  0  0
    1.6839   -7.2010    0.0000 C   0  0  0  0  0  0  0  0  0  0  0  0
    3.0542   -7.8111    0.0000 C   0  0  0  0  0  0  0  0  0  0  0  0
    4.2350   -7.1566    0.0000 Cl  0  0  0  0  0  0  0  0  0  0  0  0
    3.2110   -9.3029    0.0000 C   0  0  0  0  0  0  0  0  0  0  0  0
    1.9975  -10.1845    0.0000 C   0  0  0  0  0  0  0  0  0  0  0  0
    0.6272   -9.5744    0.0000 C   0  0  0  0  0  0  0  0  0  0  0  0
    0.4704   -8.0826    0.0000 C   0  0  0  0  0  0  0  0  0  0  0  0
   -0.8999   -7.4725    0.0000 Cl  0  0  0  0  0  0  0  0  0  0  0  0
    0.1568   -5.0991    0.0000 C   0  0  0  0  0  0  0  0  0  0  0  0
   -0.0000   -3.6073    0.0000 C   0  0  0  0  0  0  0  0  0  0  0  0
    1.2135   -2.7256    0.0000 C   0  0  0  0  0  0  0  0  0  0  0  0
    0.7500   -1.2990    0.0000 C   0  0  0  0  0  0  0  0  0  0  0  0
    1.5000    0.0000    0.0000 C   0  0  0  0  0  0  0  0  0  0  0  0
    0.7500    1.2990    0.0000 C   0  0  0  0  0  0  0  0  0  0  0  0
    1.5000    2.5981    0.0000 O   0  0  0  0  0  0  0  0  0  0  0  0
   -0.7500    1.2990    0.0000 C   0  0  0  0  0  0  0  0  0  0  0  0
   -1.5000    0.0000    0.0000 C   0  0  0  0  0  0  0  0  0  0  0  0
   -0.7500   -1.2990    0.0000 C   0  0  0  0  0  0  0  0  0  0  0  0
   -1.2135   -2.7256    0.0000 N   0  0  0  0  0  0  0  0  0  0  0  0
   -2.6401   -3.1891    0.0000 C   0  0  0  0  0  0  0  0  0  0  0  0
   -3.7548   -2.1855    0.0000 C   0  0  0  0  0  0  0  0  0  0  0  0
   -5.1814   -2.6490    0.0000 C   0  0  0  0  0  0  0  0  0  0  0  0
   -6.2961   -1.6453    0.0000 N   0  0  0  0  0  0  0  0  0  0  0  0
   -5.9843   -0.1781    0.0000 C   0  0  0  0  0  0  0  0  0  0  0  0
   -7.0990    0.8256    0.0000 C   0  0  0  0  0  0  0  0  0  0  0  0
   -8.5256    0.3621    0.0000 O   0  0  0  0  0  0  0  0  0  0  0  0
   -8.8374   -1.1051    0.0000 C   0  0  0  0  0  0  0  0  0  0  0  0
   -7.7227   -2.1088    0.0000 C   0  0  0  0  0  0  0  0  0  0  0  0
  1  2  2  0
  2  3  1  0
  3  4  1  0
  4  5  2  0
  4  6  1  0
  6  7  2  0
  7  8  1  0
  8  9  1  0
  9 10  2  0
 10 11  1  0
 10 12  1  0
 12 13  2  0
 13 14  1  0
 14 15  2  0
 15 16  1  0
  8 17  2  0
 17 18  1  0
 18 19  2  0
 19 20  1  0
 20 21  2  0
 21 22  1  0
 22 23  1  0
 22 24  2  0
 24 25  1  0
 25 26  2  0
 26 27  1  0
 27 28  1  0
 28 29  1  0
 29 30  1  0
 30 31  1  0
 31 32  1  0
 32 33  1  0
 33 34  1  0
 34 35  1  0
 35 36  1  0
  7  2  1  0
 15  9  1  0
 27 18  1  0
 36 31  1  0
 19  6  1  0
 26 20  1  0
M  END
>  <Compound_ID>  (75) 
CHEMBL486828

>  <Active>  (75) 
1

>  <Smiles>  (75) 
O=C1NC(=O)c2c1c(-c1c(Cl)cccc1Cl)cc1c2c2cc(O)ccc2n1CCCN1CCOCC1

>  <canonical_smi>  (75) 
O=C1NC(=O)c2c1c(-c1c(Cl)cccc1Cl)cc1c2c2cc(O)ccc2n1CCCN1CCOCC1

>  <Set>  (75) 
G2 active

>  <Set_type>  (75) 
Train

>  <MW>  (75) 
524.4

>  <HBD>  (75) 
2

>  <HBA>  (75) 
5

>  <NRB>  (75) 
5

>  <NR>  (75) 
6

>  <NAR>  (75) 
4

>  <PSA>  (75) 
83.8

>  <Standard Type>  (75) 
nan

>  <Standard Relation>  (75) 
nan

>  <Standard Units>  (75) 
nan

>  <Standard Value>  (75) 
nan

>  <Assay ChEMBL ID>  (75) 
nan

>  <Assay Description>  (75) 
nan

>  <BAO Label>  (75) 
nan

$$$$

     RDKit          2D

 37 42  0  0  0  0  0  0  0  0999 V2000
    4.8180   -6.5097    0.0000 O   0  0  0  0  0  0  0  0  0  0  0  0
    4.2079   -5.1394    0.0000 C   0  0  0  0  0  0  0  0  0  0  0  0
    4.9579   -3.8403    0.0000 N   0  0  0  0  0  0  0  0  0  0  0  0
    3.9542   -2.7256    0.0000 C   0  0  0  0  0  0  0  0  0  0  0  0
    4.2660   -1.2584    0.0000 O   0  0  0  0  0  0  0  0  0  0  0  0
    2.5838   -3.3357    0.0000 C   0  0  0  0  0  0  0  0  0  0  0  0
    2.7406   -4.8275    0.0000 C   0  0  0  0  0  0  0  0  0  0  0  0
    1.5271   -5.7092    0.0000 C   0  0  0  0  0  0  0  0  0  0  0  0
    1.6839   -7.2010    0.0000 C   0  0  0  0  0  0  0  0  0  0  0  0
    3.0542   -7.8111    0.0000 C   0  0  0  0  0  0  0  0  0  0  0  0
    3.2110   -9.3029    0.0000 C   0  0  0  0  0  0  0  0  0  0  0  0
    1.9975  -10.1845    0.0000 C   0  0  0  0  0  0  0  0  0  0  0  0
    0.6272   -9.5744    0.0000 C   0  0  0  0  0  0  0  0  0  0  0  0
    0.4704   -8.0826    0.0000 C   0  0  0  0  0  0  0  0  0  0  0  0
   -0.8999   -7.4725    0.0000 Cl  0  0  0  0  0  0  0  0  0  0  0  0
    0.1568   -5.0991    0.0000 C   0  0  0  0  0  0  0  0  0  0  0  0
   -0.0000   -3.6073    0.0000 C   0  0  0  0  0  0  0  0  0  0  0  0
    1.2135   -2.7256    0.0000 C   0  0  0  0  0  0  0  0  0  0  0  0
    0.7500   -1.2990    0.0000 C   0  0  0  0  0  0  0  0  0  0  0  0
    1.5000    0.0000    0.0000 C   0  0  0  0  0  0  0  0  0  0  0  0
    0.7500    1.2990    0.0000 C   0  0  0  0  0  0  0  0  0  0  0  0
    1.5000    2.5981    0.0000 O   0  0  0  0  0  0  0  0  0  0  0  0
   -0.7500    1.2990    0.0000 C   0  0  0  0  0  0  0  0  0  0  0  0
   -1.5000    0.0000    0.0000 C   0  0  0  0  0  0  0  0  0  0  0  0
   -0.7500   -1.2990    0.0000 C   0  0  0  0  0  0  0  0  0  0  0  0
   -1.2135   -2.7256    0.0000 N   0  0  0  0  0  0  0  0  0  0  0  0
   -2.6401   -3.1891    0.0000 C   0  0  0  0  0  0  0  0  0  0  0  0
   -3.7548   -2.1855    0.0000 C   0  0  0  0  0  0  0  0  0  0  0  0
   -5.1814   -2.6490    0.0000 C   0  0  0  0  0  0  0  0  0  0  0  0
   -6.2961   -1.6453    0.0000 C   0  0  0  0  0  0  0  0  0  0  0  0
   -5.9843   -0.1781    0.0000 O   0  0  0  0  0  0  0  0  0  0  0  0
   -7.7227   -2.1088    0.0000 N   0  0  0  0  0  0  0  0  0  0  0  0
   -8.8374   -1.1051    0.0000 C   0  0  0  0  0  0  0  0  0  0  0  0
  -10.2640   -1.5686    0.0000 C   0  0  0  0  0  0  0  0  0  0  0  0
  -10.5759   -3.0359    0.0000 O   0  0  0  0  0  0  0  0  0  0  0  0
   -9.4612   -4.0396    0.0000 C   0  0  0  0  0  0  0  0  0  0  0  0
   -8.0346   -3.5760    0.0000 C   0  0  0  0  0  0  0  0  0  0  0  0
  1  2  2  0
  2  3  1  0
  3  4  1  0
  4  5  2  0
  4  6  1  0
  6  7  2  0
  7  8  1  0
  8  9  1  0
  9 10  2  0
 10 11  1  0
 11 12  2  0
 12 13  1  0
 13 14  2  0
 14 15  1  0
  8 16  2  0
 16 17  1  0
 17 18  2  0
 18 19  1  0
 19 20  2  0
 20 21  1  0
 21 22  1  0
 21 23  2  0
 23 24  1  0
 24 25  2  0
 25 26  1  0
 26 27  1  0
 27 28  1  0
 28 29  1  0
 29 30  1  0
 30 31  2  0
 30 32  1  0
 32 33  1  0
 33 34  1  0
 34 35  1  0
 35 36  1  0
 36 37  1  0
  7  2  1  0
 14  9  1  0
 26 17  1  0
 37 32  1  0
 18  6  1  0
 25 19  1  0
M  END
>  <Compound_ID>  (76) 
CHEMBL519212

>  <Active>  (76) 
1

>  <Smiles>  (76) 
O=C1NC(=O)c2c1c(-c1ccccc1Cl)cc1c2c2cc(O)ccc2n1CCCC(=O)N1CCOCC1

>  <canonical_smi>  (76) 
O=C1NC(=O)c2c1c(-c1ccccc1Cl)cc1c2c2cc(O)ccc2n1CCCC(=O)N1CCOCC1

>  <Set>  (76) 
G2 active

>  <Set_type>  (76) 
Train

>  <MW>  (76) 
517.97

>  <HBD>  (76) 
2

>  <HBA>  (76) 
5

>  <NRB>  (76) 
5

>  <NR>  (76) 
6

>  <NAR>  (76) 
4

>  <PSA>  (76) 
100.87

>  <Standard Type>  (76) 
nan

>  <Standard Relation>  (76) 
nan

>  <Standard Units>  (76) 
nan

>  <Standard Value>  (76) 
nan

>  <Assay ChEMBL ID>  (76) 
nan

>  <Assay Description>  (76) 
nan

>  <BAO Label>  (76) 
nan

$$$$

     RDKit          2D

 35 40  0  0  0  0  0  0  0  0999 V2000
    4.8180   -6.5097    0.0000 O   0  0  0  0  0  0  0  0  0  0  0  0
    4.2079   -5.1394    0.0000 C   0  0  0  0  0  0  0  0  0  0  0  0
    4.9579   -3.8403    0.0000 N   0  0  0  0  0  0  0  0  0  0  0  0
    3.9542   -2.7256    0.0000 C   0  0  0  0  0  0  0  0  0  0  0  0
    4.2660   -1.2584    0.0000 O   0  0  0  0  0  0  0  0  0  0  0  0
    2.5838   -3.3357    0.0000 C   0  0  0  0  0  0  0  0  0  0  0  0
    2.7406   -4.8275    0.0000 C   0  0  0  0  0  0  0  0  0  0  0  0
    1.5271   -5.7092    0.0000 C   0  0  0  0  0  0  0  0  0  0  0  0
    1.6839   -7.2010    0.0000 C   0  0  0  0  0  0  0  0  0  0  0  0
    3.0542   -7.8111    0.0000 C   0  0  0  0  0  0  0  0  0  0  0  0
    3.2110   -9.3029    0.0000 C   0  0  0  0  0  0  0  0  0  0  0  0
    1.9975  -10.1845    0.0000 C   0  0  0  0  0  0  0  0  0  0  0  0
    0.6272   -9.5744    0.0000 C   0  0  0  0  0  0  0  0  0  0  0  0
    0.4704   -8.0826    0.0000 C   0  0  0  0  0  0  0  0  0  0  0  0
   -0.8999   -7.4725    0.0000 Cl  0  0  0  0  0  0  0  0  0  0  0  0
    0.1568   -5.0991    0.0000 C   0  0  0  0  0  0  0  0  0  0  0  0
   -0.0000   -3.6073    0.0000 C   0  0  0  0  0  0  0  0  0  0  0  0
    1.2135   -2.7256    0.0000 C   0  0  0  0  0  0  0  0  0  0  0  0
    0.7500   -1.2990    0.0000 C   0  0  0  0  0  0  0  0  0  0  0  0
    1.5000    0.0000    0.0000 C   0  0  0  0  0  0  0  0  0  0  0  0
    0.7500    1.2990    0.0000 C   0  0  0  0  0  0  0  0  0  0  0  0
    1.5000    2.5981    0.0000 O   0  0  0  0  0  0  0  0  0  0  0  0
   -0.7500    1.2990    0.0000 C   0  0  0  0  0  0  0  0  0  0  0  0
   -1.5000    0.0000    0.0000 C   0  0  0  0  0  0  0  0  0  0  0  0
   -0.7500   -1.2990    0.0000 C   0  0  0  0  0  0  0  0  0  0  0  0
   -1.2135   -2.7256    0.0000 N   0  0  0  0  0  0  0  0  0  0  0  0
   -2.6401   -3.1891    0.0000 C   0  0  0  0  0  0  0  0  0  0  0  0
   -3.7548   -2.1855    0.0000 C   0  0  0  0  0  0  0  0  0  0  0  0
   -5.1814   -2.6490    0.0000 C   0  0  0  0  0  0  0  0  0  0  0  0
   -6.2961   -1.6453    0.0000 N   0  0  0  0  0  0  0  0  0  0  0  0
   -5.9843   -0.1781    0.0000 C   0  0  0  0  0  0  0  0  0  0  0  0
   -7.0990    0.8256    0.0000 C   0  0  0  0  0  0  0  0  0  0  0  0
   -8.5256    0.3621    0.0000 O   0  0  0  0  0  0  0  0  0  0  0  0
   -8.8374   -1.1051    0.0000 C   0  0  0  0  0  0  0  0  0  0  0  0
   -7.7227   -2.1088    0.0000 C   0  0  0  0  0  0  0  0  0  0  0  0
  1  2  2  0
  2  3  1  0
  3  4  1  0
  4  5  2  0
  4  6  1  0
  6  7  2  0
  7  8  1  0
  8  9  1  0
  9 10  2  0
 10 11  1  0
 11 12  2  0
 12 13  1  0
 13 14  2  0
 14 15  1  0
  8 16  2  0
 16 17  1  0
 17 18  2  0
 18 19  1  0
 19 20  2  0
 20 21  1  0
 21 22  1  0
 21 23  2  0
 23 24  1  0
 24 25  2  0
 25 26  1  0
 26 27  1  0
 27 28  1  0
 28 29  1  0
 29 30  1  0
 30 31  1  0
 31 32  1  0
 32 33  1  0
 33 34  1  0
 34 35  1  0
  7  2  1  0
 14  9  1  0
 26 17  1  0
 35 30  1  0
 18  6  1  0
 25 19  1  0
M  END
>  <Compound_ID>  (77) 
CHEMBL486661

>  <Active>  (77) 
1

>  <Smiles>  (77) 
O=C1NC(=O)c2c1c(-c1ccccc1Cl)cc1c2c2cc(O)ccc2n1CCCN1CCOCC1

>  <canonical_smi>  (77) 
O=C1NC(=O)c2c1c(-c1ccccc1Cl)cc1c2c2cc(O)ccc2n1CCCN1CCOCC1

>  <Set>  (77) 
G2 active

>  <Set_type>  (77) 
Train

>  <MW>  (77) 
489.96

>  <HBD>  (77) 
2

>  <HBA>  (77) 
5

>  <NRB>  (77) 
5

>  <NR>  (77) 
6

>  <NAR>  (77) 
4

>  <PSA>  (77) 
83.8

>  <Standard Type>  (77) 
nan

>  <Standard Relation>  (77) 
nan

>  <Standard Units>  (77) 
nan

>  <Standard Value>  (77) 
nan

>  <Assay ChEMBL ID>  (77) 
nan

>  <Assay Description>  (77) 
nan

>  <BAO Label>  (77) 
nan

$$$$

     RDKit          2D

 36 41  0  0  0  0  0  0  0  0999 V2000
    4.8180   -6.5097    0.0000 O   0  0  0  0  0  0  0  0  0  0  0  0
    4.2079   -5.1394    0.0000 C   0  0  0  0  0  0  0  0  0  0  0  0
    4.9579   -3.8403    0.0000 N   0  0  0  0  0  0  0  0  0  0  0  0
    3.9542   -2.7256    0.0000 C   0  0  0  0  0  0  0  0  0  0  0  0
    4.2660   -1.2584    0.0000 O   0  0  0  0  0  0  0  0  0  0  0  0
    2.5838   -3.3357    0.0000 C   0  0  0  0  0  0  0  0  0  0  0  0
    2.7406   -4.8275    0.0000 C   0  0  0  0  0  0  0  0  0  0  0  0
    1.5271   -5.7092    0.0000 C   0  0  0  0  0  0  0  0  0  0  0  0
    1.6839   -7.2010    0.0000 C   0  0  0  0  0  0  0  0  0  0  0  0
    3.0542   -7.8111    0.0000 C   0  0  0  0  0  0  0  0  0  0  0  0
    3.2110   -9.3029    0.0000 C   0  0  0  0  0  0  0  0  0  0  0  0
    1.9975  -10.1845    0.0000 C   0  0  0  0  0  0  0  0  0  0  0  0
    0.6272   -9.5744    0.0000 C   0  0  0  0  0  0  0  0  0  0  0  0
    0.4704   -8.0826    0.0000 C   0  0  0  0  0  0  0  0  0  0  0  0
   -0.8999   -7.4725    0.0000 Cl  0  0  0  0  0  0  0  0  0  0  0  0
    0.1568   -5.0991    0.0000 C   0  0  0  0  0  0  0  0  0  0  0  0
   -0.0000   -3.6073    0.0000 C   0  0  0  0  0  0  0  0  0  0  0  0
    1.2135   -2.7256    0.0000 C   0  0  0  0  0  0  0  0  0  0  0  0
    0.7500   -1.2990    0.0000 C   0  0  0  0  0  0  0  0  0  0  0  0
    1.5000    0.0000    0.0000 C   0  0  0  0  0  0  0  0  0  0  0  0
    0.7500    1.2990    0.0000 C   0  0  0  0  0  0  0  0  0  0  0  0
    1.5000    2.5981    0.0000 O   0  0  0  0  0  0  0  0  0  0  0  0
   -0.7500    1.2990    0.0000 C   0  0  0  0  0  0  0  0  0  0  0  0
   -1.5000    0.0000    0.0000 C   0  0  0  0  0  0  0  0  0  0  0  0
   -0.7500   -1.2990    0.0000 C   0  0  0  0  0  0  0  0  0  0  0  0
   -1.2135   -2.7256    0.0000 N   0  0  0  0  0  0  0  0  0  0  0  0
   -2.6401   -3.1891    0.0000 C   0  0  0  0  0  0  0  0  0  0  0  0
   -3.7548   -2.1855    0.0000 C   0  0  0  0  0  0  0  0  0  0  0  0
   -5.1814   -2.6490    0.0000 C   0  0  0  0  0  0  0  0  0  0  0  0
   -6.2961   -1.6453    0.0000 N   0  0  0  0  0  0  0  0  0  0  0  0
   -7.7227   -2.1088    0.0000 C   0  0  0  0  0  0  0  0  0  0  0  0
   -8.8374   -1.1051    0.0000 C   0  0  0  0  0  0  0  0  0  0  0  0
  -10.2640   -1.5686    0.0000 C   0  0  0  0  0  0  0  0  0  0  0  0
  -10.5759   -3.0359    0.0000 C   0  0  0  0  0  0  0  0  0  0  0  0
   -9.4612   -4.0396    0.0000 C   0  0  0  0  0  0  0  0  0  0  0  0
   -8.0346   -3.5760    0.0000 C   0  0  0  0  0  0  0  0  0  0  0  0
  1  2  2  0
  2  3  1  0
  3  4  1  0
  4  5  2  0
  4  6  1  0
  6  7  2  0
  7  8  1  0
  8  9  1  0
  9 10  2  0
 10 11  1  0
 11 12  2  0
 12 13  1  0
 13 14  2  0
 14 15  1  0
  8 16  2  0
 16 17  1  0
 17 18  2  0
 18 19  1  0
 19 20  2  0
 20 21  1  0
 21 22  1  0
 21 23  2  0
 23 24  1  0
 24 25  2  0
 25 26  1  0
 26 27  1  0
 27 28  1  0
 28 29  1  0
 29 30  1  0
 30 31  1  0
 31 32  2  0
 32 33  1  0
 33 34  2  0
 34 35  1  0
 35 36  2  0
  7  2  1  0
 14  9  1  0
 26 17  1  0
 36 31  1  0
 18  6  1  0
 25 19  1  0
M  END
>  <Compound_ID>  (78) 
CHEMBL460079

>  <Active>  (78) 
1

>  <Smiles>  (78) 
O=C1NC(=O)c2c1c(-c1ccccc1Cl)cc1c2c2cc(O)ccc2n1CCCNc1ccccc1

>  <canonical_smi>  (78) 
O=C1NC(=O)c2c1c(-c1ccccc1Cl)cc1c2c2cc(O)ccc2n1CCCNc1ccccc1

>  <Set>  (78) 
G2 active

>  <Set_type>  (78) 
Train

>  <MW>  (78) 
495.97

>  <HBD>  (78) 
3

>  <HBA>  (78) 
4

>  <NRB>  (78) 
6

>  <NR>  (78) 
6

>  <NAR>  (78) 
5

>  <PSA>  (78) 
83.36

>  <Standard Type>  (78) 
nan

>  <Standard Relation>  (78) 
nan

>  <Standard Units>  (78) 
nan

>  <Standard Value>  (78) 
nan

>  <Assay ChEMBL ID>  (78) 
nan

>  <Assay Description>  (78) 
nan

>  <BAO Label>  (78) 
nan

$$$$

     RDKit          2D

 36 41  0  0  0  0  0  0  0  0999 V2000
    2.6401   -3.1891    0.0000 C   0  0  0  0  0  0  0  0  0  0  0  0
    1.2135   -2.7256    0.0000 N   0  0  0  0  0  0  0  0  0  0  0  0
    0.7500   -1.2990    0.0000 C   0  0  0  0  0  0  0  0  0  0  0  0
    1.5000    0.0000    0.0000 C   0  0  0  0  0  0  0  0  0  0  0  0
    0.7500    1.2990    0.0000 C   0  0  0  0  0  0  0  0  0  0  0  0
    1.5000    2.5981    0.0000 O   0  0  0  0  0  0  0  0  0  0  0  0
    3.0000    2.5981    0.0000 C   0  0  0  0  0  0  0  0  0  0  0  0
    3.7500    3.8971    0.0000 C   0  0  0  0  0  0  0  0  0  0  0  0
    5.2500    3.8971    0.0000 C   0  0  0  0  0  0  0  0  0  0  0  0
    6.0000    5.1962    0.0000 N   0  0  0  0  0  0  0  0  0  0  0  0
    5.3899    6.5665    0.0000 C   0  0  0  0  0  0  0  0  0  0  0  0
    6.5046    7.5702    0.0000 C   0  0  0  0  0  0  0  0  0  0  0  0
    7.8037    6.8202    0.0000 C   0  0  0  0  0  0  0  0  0  0  0  0
    7.4918    5.3529    0.0000 C   0  0  0  0  0  0  0  0  0  0  0  0
   -0.7500    1.2990    0.0000 C   0  0  0  0  0  0  0  0  0  0  0  0
   -1.5000    2.5981    0.0000 O   0  0  0  0  0  0  0  0  0  0  0  0
   -1.5000    0.0000    0.0000 C   0  0  0  0  0  0  0  0  0  0  0  0
   -0.7500   -1.2990    0.0000 C   0  0  0  0  0  0  0  0  0  0  0  0
   -1.2135   -2.7256    0.0000 C   0  0  0  0  0  0  0  0  0  0  0  0
   -2.5838   -3.3357    0.0000 C   0  0  0  0  0  0  0  0  0  0  0  0
   -2.7406   -4.8275    0.0000 C   0  0  0  0  0  0  0  0  0  0  0  0
   -1.5271   -5.7092    0.0000 C   0  0  0  0  0  0  0  0  0  0  0  0
   -1.6839   -7.2010    0.0000 C   0  0  0  0  0  0  0  0  0  0  0  0
   -3.0542   -7.8111    0.0000 C   0  0  0  0  0  0  0  0  0  0  0  0
   -3.2110   -9.3029    0.0000 C   0  0  0  0  0  0  0  0  0  0  0  0
   -1.9975  -10.1845    0.0000 C   0  0  0  0  0  0  0  0  0  0  0  0
   -0.6272   -9.5744    0.0000 C   0  0  0  0  0  0  0  0  0  0  0  0
   -0.4704   -8.0826    0.0000 C   0  0  0  0  0  0  0  0  0  0  0  0
    0.8999   -7.4725    0.0000 Cl  0  0  0  0  0  0  0  0  0  0  0  0
   -0.1568   -5.0991    0.0000 C   0  0  0  0  0  0  0  0  0  0  0  0
   -0.0000   -3.6073    0.0000 C   0  0  0  0  0  0  0  0  0  0  0  0
   -4.2079   -5.1394    0.0000 C   0  0  0  0  0  0  0  0  0  0  0  0
   -4.8180   -6.5097    0.0000 O   0  0  0  0  0  0  0  0  0  0  0  0
   -4.9579   -3.8403    0.0000 N   0  0  0  0  0  0  0  0  0  0  0  0
   -3.9542   -2.7256    0.0000 C   0  0  0  0  0  0  0  0  0  0  0  0
   -4.2660   -1.2584    0.0000 O   0  0  0  0  0  0  0  0  0  0  0  0
  1  2  1  0
  2  3  1  0
  3  4  2  0
  4  5  1  0
  5  6  1  0
  6  7  1  0
  7  8  1  0
  8  9  1  0
  9 10  1  0
 10 11  1  0
 11 12  1  0
 12 13  1  0
 13 14  1  0
  5 15  2  0
 15 16  1  0
 15 17  1  0
 17 18  2  0
 18 19  1  0
 19 20  2  0
 20 21  1  0
 21 22  2  0
 22 23  1  0
 23 24  2  0
 24 25  1  0
 25 26  2  0
 26 27  1  0
 27 28  2  0
 28 29  1  0
 22 30  1  0
 30 31  2  0
 21 32  1  0
 32 33  2  0
 32 34  1  0
 34 35  1  0
 35 36  2  0
 31  2  1  0
 18  3  1  0
 31 19  1  0
 14 10  1  0
 35 20  1  0
 28 23  1  0
M  END
>  <Compound_ID>  (79) 
CHEMBL255427

>  <Active>  (79) 
1

>  <Smiles>  (79) 
Cn1c2cc(OCCCN3CCCC3)c(O)cc2c2c3c(c(-c4ccccc4Cl)cc21)C(=O)NC3=O

>  <canonical_smi>  (79) 
Cn1c2cc(OCCCN3CCCC3)c(O)cc2c2c3c(c(-c4ccccc4Cl)cc21)C(=O)NC3=O

>  <Set>  (79) 
G2 active

>  <Set_type>  (79) 
Train

>  <MW>  (79) 
503.99

>  <HBD>  (79) 
2

>  <HBA>  (79) 
5

>  <NRB>  (79) 
6

>  <NR>  (79) 
6

>  <NAR>  (79) 
4

>  <PSA>  (79) 
83.8

>  <Standard Type>  (79) 
nan

>  <Standard Relation>  (79) 
nan

>  <Standard Units>  (79) 
nan

>  <Standard Value>  (79) 
nan

>  <Assay ChEMBL ID>  (79) 
nan

>  <Assay Description>  (79) 
nan

>  <BAO Label>  (79) 
nan

$$$$

     RDKit          2D

 36 41  0  0  0  0  0  0  0  0999 V2000
    5.6260  -10.9888    0.0000 C   0  0  0  0  0  0  0  0  0  0  0  0
    5.3142   -9.5216    0.0000 N   0  0  0  0  0  0  0  0  0  0  0  0
    3.8876   -9.0580    0.0000 C   0  0  0  0  0  0  0  0  0  0  0  0
    3.5757   -7.5908    0.0000 C   0  0  0  0  0  0  0  0  0  0  0  0
    4.6904   -6.5871    0.0000 N   0  0  0  0  0  0  0  0  0  0  0  0
    4.3786   -5.1199    0.0000 C   0  0  0  0  0  0  0  0  0  0  0  0
    2.9520   -4.6564    0.0000 C   0  0  0  0  0  0  0  0  0  0  0  0
    2.6401   -3.1891    0.0000 C   0  0  0  0  0  0  0  0  0  0  0  0
    1.2135   -2.7256    0.0000 N   0  0  0  0  0  0  0  0  0  0  0  0
    0.7500   -1.2990    0.0000 C   0  0  0  0  0  0  0  0  0  0  0  0
    1.5000    0.0000    0.0000 C   0  0  0  0  0  0  0  0  0  0  0  0
    0.7500    1.2990    0.0000 C   0  0  0  0  0  0  0  0  0  0  0  0
   -0.7500    1.2990    0.0000 C   0  0  0  0  0  0  0  0  0  0  0  0
   -1.5000    2.5981    0.0000 O   0  0  0  0  0  0  0  0  0  0  0  0
   -1.5000    0.0000    0.0000 C   0  0  0  0  0  0  0  0  0  0  0  0
   -0.7500   -1.2990    0.0000 C   0  0  0  0  0  0  0  0  0  0  0  0
   -1.2135   -2.7256    0.0000 C   0  0  0  0  0  0  0  0  0  0  0  0
   -2.5838   -3.3357    0.0000 C   0  0  0  0  0  0  0  0  0  0  0  0
   -2.7406   -4.8275    0.0000 C   0  0  0  0  0  0  0  0  0  0  0  0
   -1.5271   -5.7092    0.0000 C   0  0  0  0  0  0  0  0  0  0  0  0
   -1.6839   -7.2010    0.0000 C   0  0  0  0  0  0  0  0  0  0  0  0
   -3.0542   -7.8111    0.0000 C   0  0  0  0  0  0  0  0  0  0  0  0
   -3.2110   -9.3029    0.0000 C   0  0  0  0  0  0  0  0  0  0  0  0
   -1.9975  -10.1845    0.0000 C   0  0  0  0  0  0  0  0  0  0  0  0
   -0.6272   -9.5744    0.0000 C   0  0  0  0  0  0  0  0  0  0  0  0
   -0.4704   -8.0826    0.0000 C   0  0  0  0  0  0  0  0  0  0  0  0
    0.8999   -7.4725    0.0000 Cl  0  0  0  0  0  0  0  0  0  0  0  0
   -0.1568   -5.0991    0.0000 C   0  0  0  0  0  0  0  0  0  0  0  0
   -0.0000   -3.6073    0.0000 C   0  0  0  0  0  0  0  0  0  0  0  0
   -4.2079   -5.1394    0.0000 C   0  0  0  0  0  0  0  0  0  0  0  0
   -4.8180   -6.5097    0.0000 O   0  0  0  0  0  0  0  0  0  0  0  0
   -4.9579   -3.8403    0.0000 N   0  0  0  0  0  0  0  0  0  0  0  0
   -3.9542   -2.7256    0.0000 C   0  0  0  0  0  0  0  0  0  0  0  0
   -4.2660   -1.2584    0.0000 O   0  0  0  0  0  0  0  0  0  0  0  0
    6.1170   -7.0506    0.0000 C   0  0  0  0  0  0  0  0  0  0  0  0
    6.4289   -8.5179    0.0000 C   0  0  0  0  0  0  0  0  0  0  0  0
  1  2  1  0
  2  3  1  0
  3  4  1  0
  4  5  1  0
  5  6  1  0
  6  7  1  0
  7  8  1  0
  8  9  1  0
  9 10  1  0
 10 11  2  0
 11 12  1  0
 12 13  2  0
 13 14  1  0
 13 15  1  0
 15 16  2  0
 16 17  1  0
 17 18  2  0
 18 19  1  0
 19 20  2  0
 20 21  1  0
 21 22  2  0
 22 23  1  0
 23 24  2  0
 24 25  1  0
 25 26  2  0
 26 27  1  0
 20 28  1  0
 28 29  2  0
 19 30  1  0
 30 31  2  0
 30 32  1  0
 32 33  1  0
 33 34  2  0
  5 35  1  0
 35 36  1  0
 36  2  1  0
 29  9  1  0
 16 10  1  0
 29 17  1  0
 33 18  1  0
 26 21  1  0
M  END
>  <Compound_ID>  (80) 
CHEMBL508412

>  <Active>  (80) 
1

>  <Smiles>  (80) 
CN1CCN(CCCn2c3ccc(O)cc3c3c4c(c(-c5ccccc5Cl)cc32)C(=O)NC4=O)CC1

>  <canonical_smi>  (80) 
CN1CCN(CCCn2c3ccc(O)cc3c3c4c(c(-c5ccccc5Cl)cc32)C(=O)NC4=O)CC1

>  <Set>  (80) 
G2 active

>  <Set_type>  (80) 
Train

>  <MW>  (80) 
503.0

>  <HBD>  (80) 
2

>  <HBA>  (80) 
5

>  <NRB>  (80) 
5

>  <NR>  (80) 
6

>  <NAR>  (80) 
4

>  <PSA>  (80) 
77.81

>  <Standard Type>  (80) 
nan

>  <Standard Relation>  (80) 
nan

>  <Standard Units>  (80) 
nan

>  <Standard Value>  (80) 
nan

>  <Assay ChEMBL ID>  (80) 
nan

>  <Assay Description>  (80) 
nan

>  <BAO Label>  (80) 
nan

$$$$

     RDKit          2D

 33 38  0  0  0  0  0  0  0  0999 V2000
    4.8180   -6.5097    0.0000 O   0  0  0  0  0  0  0  0  0  0  0  0
    4.2079   -5.1394    0.0000 C   0  0  0  0  0  0  0  0  0  0  0  0
    4.9579   -3.8403    0.0000 N   0  0  0  0  0  0  0  0  0  0  0  0
    3.9542   -2.7256    0.0000 C   0  0  0  0  0  0  0  0  0  0  0  0
    4.2660   -1.2584    0.0000 O   0  0  0  0  0  0  0  0  0  0  0  0
    2.5838   -3.3357    0.0000 C   0  0  0  0  0  0  0  0  0  0  0  0
    2.7406   -4.8275    0.0000 C   0  0  0  0  0  0  0  0  0  0  0  0
    1.5271   -5.7092    0.0000 C   0  0  0  0  0  0  0  0  0  0  0  0
    1.6839   -7.2010    0.0000 C   0  0  0  0  0  0  0  0  0  0  0  0
    3.0542   -7.8111    0.0000 C   0  0  0  0  0  0  0  0  0  0  0  0
    3.2110   -9.3029    0.0000 C   0  0  0  0  0  0  0  0  0  0  0  0
    1.9975  -10.1845    0.0000 C   0  0  0  0  0  0  0  0  0  0  0  0
    0.6272   -9.5744    0.0000 C   0  0  0  0  0  0  0  0  0  0  0  0
    0.4704   -8.0826    0.0000 C   0  0  0  0  0  0  0  0  0  0  0  0
   -0.8999   -7.4725    0.0000 Cl  0  0  0  0  0  0  0  0  0  0  0  0
    0.1568   -5.0991    0.0000 C   0  0  0  0  0  0  0  0  0  0  0  0
   -0.0000   -3.6073    0.0000 C   0  0  0  0  0  0  0  0  0  0  0  0
    1.2135   -2.7256    0.0000 C   0  0  0  0  0  0  0  0  0  0  0  0
    0.7500   -1.2990    0.0000 C   0  0  0  0  0  0  0  0  0  0  0  0
    1.5000    0.0000    0.0000 C   0  0  0  0  0  0  0  0  0  0  0  0
    0.7500    1.2990    0.0000 C   0  0  0  0  0  0  0  0  0  0  0  0
    1.5000    2.5981    0.0000 O   0  0  0  0  0  0  0  0  0  0  0  0
   -0.7500    1.2990    0.0000 C   0  0  0  0  0  0  0  0  0  0  0  0
   -1.5000    0.0000    0.0000 C   0  0  0  0  0  0  0  0  0  0  0  0
   -0.7500   -1.2990    0.0000 C   0  0  0  0  0  0  0  0  0  0  0  0
   -1.2135   -2.7256    0.0000 N   0  0  0  0  0  0  0  0  0  0  0  0
   -2.6401   -3.1891    0.0000 C   0  0  0  0  0  0  0  0  0  0  0  0
   -3.7548   -2.1855    0.0000 C   0  0  0  0  0  0  0  0  0  0  0  0
   -5.1814   -2.6490    0.0000 N   0  0  0  0  0  0  0  0  0  0  0  0
   -5.6449   -4.0756    0.0000 C   0  0  0  0  0  0  0  0  0  0  0  0
   -7.1449   -4.0756    0.0000 C   0  0  0  0  0  0  0  0  0  0  0  0
   -7.6085   -2.6490    0.0000 N   0  0  0  0  0  0  0  0  0  0  0  0
   -6.3949   -1.7673    0.0000 C   0  0  0  0  0  0  0  0  0  0  0  0
  1  2  2  0
  2  3  1  0
  3  4  1  0
  4  5  2  0
  4  6  1  0
  6  7  2  0
  7  8  1  0
  8  9  1  0
  9 10  2  0
 10 11  1  0
 11 12  2  0
 12 13  1  0
 13 14  2  0
 14 15  1  0
  8 16  2  0
 16 17  1  0
 17 18  2  0
 18 19  1  0
 19 20  2  0
 20 21  1  0
 21 22  1  0
 21 23  2  0
 23 24  1  0
 24 25  2  0
 25 26  1  0
 26 27  1  0
 27 28  1  0
 28 29  1  0
 29 30  1  0
 30 31  2  0
 31 32  1  0
 32 33  2  0
  7  2  1  0
 14  9  1  0
 26 17  1  0
 33 29  1  0
 18  6  1  0
 25 19  1  0
M  END
>  <Compound_ID>  (81) 
CHEMBL529897

>  <Active>  (81) 
1

>  <Smiles>  (81) 
O=C1NC(=O)c2c1c(-c1ccccc1Cl)cc1c2c2cc(O)ccc2n1CCn1ccnc1

>  <canonical_smi>  (81) 
O=C1NC(=O)c2c1c(-c1ccccc1Cl)cc1c2c2cc(O)ccc2n1CCn1ccnc1

>  <Set>  (81) 
G2 active

>  <Set_type>  (81) 
Train

>  <MW>  (81) 
456.89

>  <HBD>  (81) 
2

>  <HBA>  (81) 
4

>  <NRB>  (81) 
4

>  <NR>  (81) 
6

>  <NAR>  (81) 
5

>  <PSA>  (81) 
89.15

>  <Standard Type>  (81) 
nan

>  <Standard Relation>  (81) 
nan

>  <Standard Units>  (81) 
nan

>  <Standard Value>  (81) 
nan

>  <Assay ChEMBL ID>  (81) 
nan

>  <Assay Description>  (81) 
nan

>  <BAO Label>  (81) 
nan

$$$$

     RDKit          2D

 35 40  0  0  0  0  0  0  0  0999 V2000
    4.8180   -6.5097    0.0000 O   0  0  0  0  0  0  0  0  0  0  0  0
    4.2079   -5.1394    0.0000 C   0  0  0  0  0  0  0  0  0  0  0  0
    4.9579   -3.8403    0.0000 N   0  0  0  0  0  0  0  0  0  0  0  0
    3.9542   -2.7256    0.0000 C   0  0  0  0  0  0  0  0  0  0  0  0
    4.2660   -1.2584    0.0000 O   0  0  0  0  0  0  0  0  0  0  0  0
    2.5838   -3.3357    0.0000 C   0  0  0  0  0  0  0  0  0  0  0  0
    2.7406   -4.8275    0.0000 C   0  0  0  0  0  0  0  0  0  0  0  0
    1.5271   -5.7092    0.0000 C   0  0  0  0  0  0  0  0  0  0  0  0
    1.6839   -7.2010    0.0000 C   0  0  0  0  0  0  0  0  0  0  0  0
    0.4704   -8.0826    0.0000 C   0  0  0  0  0  0  0  0  0  0  0  0
    0.6272   -9.5744    0.0000 C   0  0  0  0  0  0  0  0  0  0  0  0
    1.9975  -10.1845    0.0000 C   0  0  0  0  0  0  0  0  0  0  0  0
    3.2110   -9.3029    0.0000 C   0  0  0  0  0  0  0  0  0  0  0  0
    3.0542   -7.8111    0.0000 C   0  0  0  0  0  0  0  0  0  0  0  0
    0.1568   -5.0991    0.0000 C   0  0  0  0  0  0  0  0  0  0  0  0
   -0.0000   -3.6073    0.0000 C   0  0  0  0  0  0  0  0  0  0  0  0
    1.2135   -2.7256    0.0000 C   0  0  0  0  0  0  0  0  0  0  0  0
    0.7500   -1.2990    0.0000 C   0  0  0  0  0  0  0  0  0  0  0  0
    1.5000    0.0000    0.0000 C   0  0  0  0  0  0  0  0  0  0  0  0
    0.7500    1.2990    0.0000 C   0  0  0  0  0  0  0  0  0  0  0  0
    1.5000    2.5981    0.0000 O   0  0  0  0  0  0  0  0  0  0  0  0
   -0.7500    1.2990    0.0000 C   0  0  0  0  0  0  0  0  0  0  0  0
   -1.5000    0.0000    0.0000 C   0  0  0  0  0  0  0  0  0  0  0  0
   -0.7500   -1.2990    0.0000 C   0  0  0  0  0  0  0  0  0  0  0  0
   -1.2135   -2.7256    0.0000 N   0  0  0  0  0  0  0  0  0  0  0  0
   -2.6401   -3.1891    0.0000 C   0  0  0  0  0  0  0  0  0  0  0  0
   -3.7548   -2.1855    0.0000 C   0  0  0  0  0  0  0  0  0  0  0  0
   -5.1814   -2.6490    0.0000 C   0  0  0  0  0  0  0  0  0  0  0  0
   -6.2961   -1.6453    0.0000 N   0  0  0  0  0  0  0  0  0  0  0  0
   -7.7227   -2.1088    0.0000 C   0  0  0  0  0  0  0  0  0  0  0  0
   -8.8374   -1.1051    0.0000 C   0  0  0  0  0  0  0  0  0  0  0  0
  -10.2640   -1.5686    0.0000 C   0  0  0  0  0  0  0  0  0  0  0  0
  -10.5759   -3.0359    0.0000 C   0  0  0  0  0  0  0  0  0  0  0  0
   -9.4612   -4.0396    0.0000 C   0  0  0  0  0  0  0  0  0  0  0  0
   -8.0346   -3.5760    0.0000 C   0  0  0  0  0  0  0  0  0  0  0  0
  1  2  2  0
  2  3  1  0
  3  4  1  0
  4  5  2  0
  4  6  1  0
  6  7  2  0
  7  8  1  0
  8  9  1  0
  9 10  2  0
 10 11  1  0
 11 12  2  0
 12 13  1  0
 13 14  2  0
  8 15  2  0
 15 16  1  0
 16 17  2  0
 17 18  1  0
 18 19  2  0
 19 20  1  0
 20 21  1  0
 20 22  2  0
 22 23  1  0
 23 24  2  0
 24 25  1  0
 25 26  1  0
 26 27  1  0
 27 28  1  0
 28 29  1  0
 29 30  1  0
 30 31  2  0
 31 32  1  0
 32 33  2  0
 33 34  1  0
 34 35  2  0
  7  2  1  0
 14  9  1  0
 25 16  1  0
 35 30  1  0
 17  6  1  0
 24 18  1  0
M  END
>  <Compound_ID>  (82) 
CHEMBL452079

>  <Active>  (82) 
1

>  <Smiles>  (82) 
O=C1NC(=O)c2c1c(-c1ccccc1)cc1c2c2cc(O)ccc2n1CCCNc1ccccc1

>  <canonical_smi>  (82) 
O=C1NC(=O)c2c1c(-c1ccccc1)cc1c2c2cc(O)ccc2n1CCCNc1ccccc1

>  <Set>  (82) 
G2 active

>  <Set_type>  (82) 
Train

>  <MW>  (82) 
461.52

>  <HBD>  (82) 
3

>  <HBA>  (82) 
4

>  <NRB>  (82) 
6

>  <NR>  (82) 
6

>  <NAR>  (82) 
5

>  <PSA>  (82) 
83.36

>  <Standard Type>  (82) 
nan

>  <Standard Relation>  (82) 
nan

>  <Standard Units>  (82) 
nan

>  <Standard Value>  (82) 
nan

>  <Assay ChEMBL ID>  (82) 
nan

>  <Assay Description>  (82) 
nan

>  <BAO Label>  (82) 
nan

$$$$

     RDKit          2D

 41 45  0  0  0  0  0  0  0  0999 V2000
   -3.0000   -2.5981    0.0000 C   0  0  0  0  0  0  0  0  0  0  0  0
   -1.5000   -2.5981    0.0000 N   0  0  0  0  0  0  0  0  0  0  0  0
   -0.7500   -3.8971    0.0000 C   0  0  0  0  0  0  0  0  0  0  0  0
   -1.5000   -5.1962    0.0000 O   0  0  0  0  0  0  0  0  0  0  0  0
    0.7500   -3.8971    0.0000 C   0  0  0  0  0  0  0  0  0  0  0  0
    1.5000   -5.1962    0.0000 C   0  0  0  0  0  0  0  0  0  0  0  0
    0.7500   -6.4952    0.0000 C   0  0  0  0  0  0  0  0  0  0  0  0
   -0.7500   -6.4952    0.0000 Cl  0  0  0  0  0  0  0  0  0  0  0  0
    1.5000   -7.7942    0.0000 C   0  0  0  0  0  0  0  0  0  0  0  0
    3.0000   -7.7942    0.0000 C   0  0  0  0  0  0  0  0  0  0  0  0
    3.7500   -6.4952    0.0000 C   0  0  0  0  0  0  0  0  0  0  0  0
    3.0000   -5.1962    0.0000 C   0  0  0  0  0  0  0  0  0  0  0  0
    3.7500   -3.8971    0.0000 Cl  0  0  0  0  0  0  0  0  0  0  0  0
    1.5000   -2.5981    0.0000 C   0  0  0  0  0  0  0  0  0  0  0  0
    0.7500   -1.2990    0.0000 C   0  0  0  0  0  0  0  0  0  0  0  0
    1.5000    0.0000    0.0000 C   0  0  0  0  0  0  0  0  0  0  0  0
    0.7500    1.2990    0.0000 N   0  0  0  0  0  0  0  0  0  0  0  0
   -0.7500    1.2990    0.0000 C   0  0  0  0  0  0  0  0  0  0  0  0
   -1.5000    2.5981    0.0000 N   0  0  0  0  0  0  0  0  0  0  0  0
   -0.7500    3.8971    0.0000 C   0  0  0  0  0  0  0  0  0  0  0  0
    0.7500    3.8971    0.0000 C   0  0  0  0  0  0  0  0  0  0  0  0
    1.5000    5.1962    0.0000 C   0  0  0  0  0  0  0  0  0  0  0  0
    0.7500    6.4952    0.0000 C   0  0  0  0  0  0  0  0  0  0  0  0
    1.5000    7.7942    0.0000 C   0  0  0  0  0  0  0  0  0  0  0  0
    3.0000    7.7942    0.0000 C   0  0  0  0  0  0  0  0  0  0  0  0
    3.7500    9.0933    0.0000 C   0  0  0  0  0  0  0  0  0  0  0  0
    5.2500    9.0933    0.0000 C   0  0  0  0  0  0  0  0  0  0  0  0
    6.0000    7.7942    0.0000 O   0  0  0  0  0  0  0  0  0  0  0  0
    6.0000   10.3923    0.0000 O   0  0  0  0  0  0  0  0  0  0  0  0
    7.5000   10.3923    0.0000 C   0  0  0  0  0  0  0  0  0  0  0  0
    8.2500   11.6913    0.0000 C   0  0  0  0  0  0  0  0  0  0  0  0
    9.7500   11.6913    0.0000 N   0  0  0  0  0  0  0  0  0  0  0  0
   10.5000   10.3923    0.0000 C   0  0  0  0  0  0  0  0  0  0  0  0
   12.0000   10.3923    0.0000 C   0  0  0  0  0  0  0  0  0  0  0  0
   12.7500   11.6913    0.0000 O   0  0  0  0  0  0  0  0  0  0  0  0
   12.0000   12.9904    0.0000 C   0  0  0  0  0  0  0  0  0  0  0  0
   10.5000   12.9904    0.0000 C   0  0  0  0  0  0  0  0  0  0  0  0
   -0.7500    6.4952    0.0000 C   0  0  0  0  0  0  0  0  0  0  0  0
   -1.5000    5.1962    0.0000 C   0  0  0  0  0  0  0  0  0  0  0  0
   -1.5000    0.0000    0.0000 N   0  0  0  0  0  0  0  0  0  0  0  0
   -0.7500   -1.2990    0.0000 C   0  0  0  0  0  0  0  0  0  0  0  0
  1  2  1  0
  2  3  1  0
  3  4  2  0
  3  5  1  0
  5  6  1  0
  6  7  2  0
  7  8  1  0
  7  9  1  0
  9 10  2  0
 10 11  1  0
 11 12  2  0
 12 13  1  0
  5 14  2  0
 14 15  1  0
 15 16  2  0
 16 17  1  0
 17 18  2  0
 18 19  1  0
 19 20  1  0
 20 21  2  0
 21 22  1  0
 22 23  2  0
 23 24  1  0
 24 25  1  0
 25 26  1  0
 26 27  1  0
 27 28  2  0
 27 29  1  0
 29 30  1  0
 30 31  1  0
 31 32  1  0
 32 33  1  0
 33 34  1  0
 34 35  1  0
 35 36  1  0
 36 37  1  0
 23 38  1  0
 38 39  2  0
 18 40  1  0
 40 41  2  0
 41  2  1  0
 12  6  1  0
 41 15  1  0
 39 20  1  0
 37 32  1  0
M  END
>  <Compound_ID>  (83) 
CHEMBL362862

>  <Active>  (83) 
1

>  <Smiles>  (83) 
Cn1c(=O)c(-c2c(Cl)cccc2Cl)cc2cnc(Nc3ccc(CCCC(=O)OCCN4CCOCC4)cc3)nc21

>  <canonical_smi>  (83) 
Cn1c(=O)c(-c2c(Cl)cccc2Cl)cc2cnc(Nc3ccc(CCCC(=O)OCCN4CCOCC4)cc3)nc21

>  <Set>  (83) 
G2 active

>  <Set_type>  (83) 
Train

>  <MW>  (83) 
596.52

>  <HBD>  (83) 
1

>  <HBA>  (83) 
8

>  <NRB>  (83) 
10

>  <NR>  (83) 
5

>  <NAR>  (83) 
4

>  <PSA>  (83) 
98.58

>  <Standard Type>  (83) 
nan

>  <Standard Relation>  (83) 
nan

>  <Standard Units>  (83) 
nan

>  <Standard Value>  (83) 
nan

>  <Assay ChEMBL ID>  (83) 
nan

>  <Assay Description>  (83) 
nan

>  <BAO Label>  (83) 
nan

$$$$

     RDKit          2D

 29 33  0  0  0  0  0  0  0  0999 V2000
    4.8180   -6.5097    0.0000 O   0  0  0  0  0  0  0  0  0  0  0  0
    4.2079   -5.1394    0.0000 C   0  0  0  0  0  0  0  0  0  0  0  0
    4.9579   -3.8403    0.0000 N   0  0  0  0  0  0  0  0  0  0  0  0
    3.9542   -2.7256    0.0000 C   0  0  0  0  0  0  0  0  0  0  0  0
    4.2660   -1.2584    0.0000 O   0  0  0  0  0  0  0  0  0  0  0  0
    2.5838   -3.3357    0.0000 C   0  0  0  0  0  0  0  0  0  0  0  0
    2.7406   -4.8275    0.0000 C   0  0  0  0  0  0  0  0  0  0  0  0
    1.5271   -5.7092    0.0000 C   0  0  0  0  0  0  0  0  0  0  0  0
    0.1568   -5.0991    0.0000 C   0  0  0  0  0  0  0  0  0  0  0  0
   -0.0000   -3.6073    0.0000 C   0  0  0  0  0  0  0  0  0  0  0  0
    1.2135   -2.7256    0.0000 C   0  0  0  0  0  0  0  0  0  0  0  0
    0.7500   -1.2990    0.0000 C   0  0  0  0  0  0  0  0  0  0  0  0
    1.5000    0.0000    0.0000 C   0  0  0  0  0  0  0  0  0  0  0  0
    0.7500    1.2990    0.0000 C   0  0  0  0  0  0  0  0  0  0  0  0
    1.5000    2.5981    0.0000 O   0  0  0  0  0  0  0  0  0  0  0  0
   -0.7500    1.2990    0.0000 C   0  0  0  0  0  0  0  0  0  0  0  0
   -1.5000    0.0000    0.0000 C   0  0  0  0  0  0  0  0  0  0  0  0
   -0.7500   -1.2990    0.0000 C   0  0  0  0  0  0  0  0  0  0  0  0
   -1.2135   -2.7256    0.0000 N   0  0  0  0  0  0  0  0  0  0  0  0
   -2.6401   -3.1891    0.0000 C   0  0  0  0  0  0  0  0  0  0  0  0
   -3.7548   -2.1855    0.0000 C   0  0  0  0  0  0  0  0  0  0  0  0
   -5.1814   -2.6490    0.0000 C   0  0  0  0  0  0  0  0  0  0  0  0
   -6.2961   -1.6453    0.0000 C   0  0  0  0  0  0  0  0  0  0  0  0
   -5.9843   -0.1781    0.0000 O   0  0  0  0  0  0  0  0  0  0  0  0
   -7.7227   -2.1088    0.0000 N   0  0  0  0  0  0  0  0  0  0  0  0
   -8.1862   -3.5354    0.0000 C   0  0  0  0  0  0  0  0  0  0  0  0
   -9.6862   -3.5354    0.0000 C   0  0  0  0  0  0  0  0  0  0  0  0
  -10.1498   -2.1088    0.0000 N   0  0  0  0  0  0  0  0  0  0  0  0
   -8.9362   -1.2271    0.0000 C   0  0  0  0  0  0  0  0  0  0  0  0
  1  2  2  0
  2  3  1  0
  3  4  1  0
  4  5  2  0
  4  6  1  0
  6  7  2  0
  7  8  1  0
  8  9  2  0
  9 10  1  0
 10 11  2  0
 11 12  1  0
 12 13  2  0
 13 14  1  0
 14 15  1  0
 14 16  2  0
 16 17  1  0
 17 18  2  0
 18 19  1  0
 19 20  1  0
 20 21  1  0
 21 22  1  0
 22 23  1  0
 23 24  2  0
 23 25  1  0
 25 26  1  0
 26 27  2  0
 27 28  1  0
 28 29  2  0
  7  2  1  0
 19 10  1  0
 29 25  1  0
 11  6  1  0
 18 12  1  0
M  END
>  <Compound_ID>  (84) 
CHEMBL521065

>  <Active>  (84) 
1

>  <Smiles>  (84) 
O=C1NC(=O)c2c1ccc1c2c2cc(O)ccc2n1CCCC(=O)n1ccnc1

>  <canonical_smi>  (84) 
O=C1NC(=O)c2c1ccc1c2c2cc(O)ccc2n1CCCC(=O)n1ccnc1

>  <Set>  (84) 
G2 active

>  <Set_type>  (84) 
Train

>  <MW>  (84) 
388.38

>  <HBD>  (84) 
2

>  <HBA>  (84) 
5

>  <NRB>  (84) 
4

>  <NR>  (84) 
5

>  <NAR>  (84) 
4

>  <PSA>  (84) 
106.22

>  <Standard Type>  (84) 
nan

>  <Standard Relation>  (84) 
nan

>  <Standard Units>  (84) 
nan

>  <Standard Value>  (84) 
nan

>  <Assay ChEMBL ID>  (84) 
nan

>  <Assay Description>  (84) 
nan

>  <BAO Label>  (84) 
nan

$$$$

     RDKit          2D

 37 42  0  0  0  0  0  0  0  0999 V2000
    4.9032   -6.2965    0.0000 O   0  0  0  0  0  0  0  0  0  0  0  0
    4.2079   -5.1394    0.0000 C   0  0  0  0  0  0  0  0  0  0  0  0
    4.9579   -3.8403    0.0000 N   0  0  0  0  0  0  0  0  0  0  0  0
    3.9542   -2.7256    0.0000 C   0  0  0  0  0  0  0  0  0  0  0  0
    4.2660   -1.2584    0.0000 O   0  0  0  0  0  0  0  0  0  0  0  0
    2.5838   -3.3357    0.0000 C   0  0  0  0  0  0  0  0  0  0  0  0
    2.7406   -4.8275    0.0000 C   0  0  0  0  0  0  0  0  0  0  0  0
    1.5271   -5.7092    0.0000 C   0  0  0  0  0  0  0  0  0  0  0  0
    1.6839   -7.2010    0.0000 C   0  0  0  0  0  0  0  0  0  0  0  0
    3.0542   -7.8111    0.0000 C   0  0  0  0  0  0  0  0  0  0  0  0
    4.2350   -7.1566    0.0000 Cl  0  0  0  0  0  0  0  0  0  0  0  0
    3.2110   -9.3029    0.0000 C   0  0  0  0  0  0  0  0  0  0  0  0
    1.9975  -10.1845    0.0000 C   0  0  0  0  0  0  0  0  0  0  0  0
    0.6272   -9.5744    0.0000 C   0  0  0  0  0  0  0  0  0  0  0  0
    0.4704   -8.0826    0.0000 C   0  0  0  0  0  0  0  0  0  0  0  0
   -0.8999   -7.4725    0.0000 Cl  0  0  0  0  0  0  0  0  0  0  0  0
    0.1568   -5.0991    0.0000 C   0  0  0  0  0  0  0  0  0  0  0  0
   -0.0000   -3.6073    0.0000 C   0  0  0  0  0  0  0  0  0  0  0  0
    1.2135   -2.7256    0.0000 C   0  0  0  0  0  0  0  0  0  0  0  0
    0.7500   -1.2990    0.0000 C   0  0  0  0  0  0  0  0  0  0  0  0
    1.5000    0.0000    0.0000 C   0  0  0  0  0  0  0  0  0  0  0  0
    0.7500    1.2990    0.0000 C   0  0  0  0  0  0  0  0  0  0  0  0
    1.5000    2.5981    0.0000 O   0  0  0  0  0  0  0  0  0  0  0  0
   -0.7500    1.2990    0.0000 C   0  0  0  0  0  0  0  0  0  0  0  0
   -1.5000    0.0000    0.0000 C   0  0  0  0  0  0  0  0  0  0  0  0
   -0.7500   -1.2990    0.0000 C   0  0  0  0  0  0  0  0  0  0  0  0
   -1.2135   -2.7256    0.0000 N   0  0  0  0  0  0  0  0  0  0  0  0
   -2.6401   -3.1891    0.0000 C   0  0  0  0  0  0  0  0  0  0  0  0
   -3.7548   -2.1855    0.0000 C   0  0  0  0  0  0  0  0  0  0  0  0
   -5.1814   -2.6490    0.0000 C   0  0  0  0  0  0  0  0  0  0  0  0
   -5.4933   -4.1162    0.0000 O   0  0  0  0  0  0  0  0  0  0  0  0
   -6.2961   -1.6453    0.0000 N   0  0  0  0  0  0  0  0  0  0  0  0
   -5.9843   -0.1781    0.0000 C   0  0  0  0  0  0  0  0  0  0  0  0
   -7.0990    0.8256    0.0000 C   0  0  0  0  0  0  0  0  0  0  0  0
   -8.5256    0.3621    0.0000 O   0  0  0  0  0  0  0  0  0  0  0  0
   -8.8374   -1.1051    0.0000 C   0  0  0  0  0  0  0  0  0  0  0  0
   -7.7227   -2.1088    0.0000 C   0  0  0  0  0  0  0  0  0  0  0  0
  1  2  2  0
  2  3  1  0
  3  4  1  0
  4  5  2  0
  4  6  1  0
  6  7  2  0
  7  8  1  0
  8  9  1  0
  9 10  2  0
 10 11  1  0
 10 12  1  0
 12 13  2  0
 13 14  1  0
 14 15  2  0
 15 16  1  0
  8 17  2  0
 17 18  1  0
 18 19  2  0
 19 20  1  0
 20 21  2  0
 21 22  1  0
 22 23  1  0
 22 24  2  0
 24 25  1  0
 25 26  2  0
 26 27  1  0
 27 28  1  0
 28 29  1  0
 29 30  1  0
 30 31  2  0
 30 32  1  0
 32 33  1  0
 33 34  1  0
 34 35  1  0
 35 36  1  0
 36 37  1  0
  7  2  1  0
 15  9  1  0
 27 18  1  0
 37 32  1  0
 19  6  1  0
 26 20  1  0
M  END
>  <Compound_ID>  (85) 
CHEMBL486101

>  <Active>  (85) 
1

>  <Smiles>  (85) 
O=C1NC(=O)c2c1c(-c1c(Cl)cccc1Cl)cc1c2c2cc(O)ccc2n1CCC(=O)N1CCOCC1

>  <canonical_smi>  (85) 
O=C1NC(=O)c2c1c(-c1c(Cl)cccc1Cl)cc1c2c2cc(O)ccc2n1CCC(=O)N1CCOCC1

>  <Set>  (85) 
G2 active

>  <Set_type>  (85) 
Train

>  <MW>  (85) 
538.39

>  <HBD>  (85) 
2

>  <HBA>  (85) 
5

>  <NRB>  (85) 
4

>  <NR>  (85) 
6

>  <NAR>  (85) 
4

>  <PSA>  (85) 
100.87

>  <Standard Type>  (85) 
nan

>  <Standard Relation>  (85) 
nan

>  <Standard Units>  (85) 
nan

>  <Standard Value>  (85) 
nan

>  <Assay ChEMBL ID>  (85) 
nan

>  <Assay Description>  (85) 
nan

>  <BAO Label>  (85) 
nan

$$$$

     RDKit          2D

 36 41  0  0  0  0  0  0  0  0999 V2000
    4.9032   -6.2965    0.0000 O   0  0  0  0  0  0  0  0  0  0  0  0
    4.2079   -5.1394    0.0000 C   0  0  0  0  0  0  0  0  0  0  0  0
    4.9579   -3.8403    0.0000 N   0  0  0  0  0  0  0  0  0  0  0  0
    3.9542   -2.7256    0.0000 C   0  0  0  0  0  0  0  0  0  0  0  0
    4.2660   -1.2584    0.0000 O   0  0  0  0  0  0  0  0  0  0  0  0
    2.5838   -3.3357    0.0000 C   0  0  0  0  0  0  0  0  0  0  0  0
    2.7406   -4.8275    0.0000 C   0  0  0  0  0  0  0  0  0  0  0  0
    1.5271   -5.7092    0.0000 C   0  0  0  0  0  0  0  0  0  0  0  0
    1.6839   -7.2010    0.0000 C   0  0  0  0  0  0  0  0  0  0  0  0
    3.0542   -7.8111    0.0000 C   0  0  0  0  0  0  0  0  0  0  0  0
    4.2350   -7.1566    0.0000 Cl  0  0  0  0  0  0  0  0  0  0  0  0
    3.2110   -9.3029    0.0000 C   0  0  0  0  0  0  0  0  0  0  0  0
    1.9975  -10.1845    0.0000 C   0  0  0  0  0  0  0  0  0  0  0  0
    0.6272   -9.5744    0.0000 C   0  0  0  0  0  0  0  0  0  0  0  0
    0.4704   -8.0826    0.0000 C   0  0  0  0  0  0  0  0  0  0  0  0
   -0.8999   -7.4725    0.0000 Cl  0  0  0  0  0  0  0  0  0  0  0  0
    0.1568   -5.0991    0.0000 C   0  0  0  0  0  0  0  0  0  0  0  0
   -0.0000   -3.6073    0.0000 C   0  0  0  0  0  0  0  0  0  0  0  0
    1.2135   -2.7256    0.0000 C   0  0  0  0  0  0  0  0  0  0  0  0
    0.7500   -1.2990    0.0000 C   0  0  0  0  0  0  0  0  0  0  0  0
    1.5000    0.0000    0.0000 C   0  0  0  0  0  0  0  0  0  0  0  0
    0.7500    1.2990    0.0000 C   0  0  0  0  0  0  0  0  0  0  0  0
    1.5000    2.5981    0.0000 O   0  0  0  0  0  0  0  0  0  0  0  0
   -0.7500    1.2990    0.0000 C   0  0  0  0  0  0  0  0  0  0  0  0
   -1.5000    0.0000    0.0000 C   0  0  0  0  0  0  0  0  0  0  0  0
   -0.7500   -1.2990    0.0000 C   0  0  0  0  0  0  0  0  0  0  0  0
   -1.2135   -2.7256    0.0000 N   0  0  0  0  0  0  0  0  0  0  0  0
   -2.6401   -3.1891    0.0000 C   0  0  0  0  0  0  0  0  0  0  0  0
   -3.7548   -2.1855    0.0000 C   0  0  0  0  0  0  0  0  0  0  0  0
   -5.1814   -2.6490    0.0000 C   0  0  0  0  0  0  0  0  0  0  0  0
   -5.4933   -4.1162    0.0000 O   0  0  0  0  0  0  0  0  0  0  0  0
   -6.2961   -1.6453    0.0000 N   0  0  0  0  0  0  0  0  0  0  0  0
   -7.7634   -1.9571    0.0000 C   0  0  0  0  0  0  0  0  0  0  0  0
   -8.5134   -0.6581    0.0000 C   0  0  0  0  0  0  0  0  0  0  0  0
   -7.5097    0.4566    0.0000 N   0  0  0  0  0  0  0  0  0  0  0  0
   -6.1393   -0.1535    0.0000 C   0  0  0  0  0  0  0  0  0  0  0  0
  1  2  2  0
  2  3  1  0
  3  4  1  0
  4  5  2  0
  4  6  1  0
  6  7  2  0
  7  8  1  0
  8  9  1  0
  9 10  2  0
 10 11  1  0
 10 12  1  0
 12 13  2  0
 13 14  1  0
 14 15  2  0
 15 16  1  0
  8 17  2  0
 17 18  1  0
 18 19  2  0
 19 20  1  0
 20 21  2  0
 21 22  1  0
 22 23  1  0
 22 24  2  0
 24 25  1  0
 25 26  2  0
 26 27  1  0
 27 28  1  0
 28 29  1  0
 29 30  1  0
 30 31  2  0
 30 32  1  0
 32 33  1  0
 33 34  2  0
 34 35  1  0
 35 36  2  0
  7  2  1  0
 15  9  1  0
 27 18  1  0
 36 32  1  0
 19  6  1  0
 26 20  1  0
M  END
>  <Compound_ID>  (86) 
CHEMBL486728

>  <Active>  (86) 
1

>  <Smiles>  (86) 
O=C1NC(=O)c2c1c(-c1c(Cl)cccc1Cl)cc1c2c2cc(O)ccc2n1CCC(=O)n1ccnc1

>  <canonical_smi>  (86) 
O=C1NC(=O)c2c1c(-c1c(Cl)cccc1Cl)cc1c2c2cc(O)ccc2n1CCC(=O)n1ccnc1

>  <Set>  (86) 
G2 active

>  <Set_type>  (86) 
Train

>  <MW>  (86) 
519.34

>  <HBD>  (86) 
2

>  <HBA>  (86) 
5

>  <NRB>  (86) 
4

>  <NR>  (86) 
6

>  <NAR>  (86) 
5

>  <PSA>  (86) 
106.22

>  <Standard Type>  (86) 
nan

>  <Standard Relation>  (86) 
nan

>  <Standard Units>  (86) 
nan

>  <Standard Value>  (86) 
nan

>  <Assay ChEMBL ID>  (86) 
nan

>  <Assay Description>  (86) 
nan

>  <BAO Label>  (86) 
nan

$$$$

     RDKit          2D

 33 38  0  0  0  0  0  0  0  0999 V2000
    4.8180   -6.5097    0.0000 O   0  0  0  0  0  0  0  0  0  0  0  0
    4.2079   -5.1394    0.0000 C   0  0  0  0  0  0  0  0  0  0  0  0
    4.9579   -3.8403    0.0000 N   0  0  0  0  0  0  0  0  0  0  0  0
    3.9542   -2.7256    0.0000 C   0  0  0  0  0  0  0  0  0  0  0  0
    4.2660   -1.2584    0.0000 O   0  0  0  0  0  0  0  0  0  0  0  0
    2.5838   -3.3357    0.0000 C   0  0  0  0  0  0  0  0  0  0  0  0
    2.7406   -4.8275    0.0000 C   0  0  0  0  0  0  0  0  0  0  0  0
    1.5271   -5.7092    0.0000 C   0  0  0  0  0  0  0  0  0  0  0  0
    1.6839   -7.2010    0.0000 C   0  0  0  0  0  0  0  0  0  0  0  0
    0.4704   -8.0826    0.0000 C   0  0  0  0  0  0  0  0  0  0  0  0
    0.6272   -9.5744    0.0000 C   0  0  0  0  0  0  0  0  0  0  0  0
    1.9975  -10.1845    0.0000 C   0  0  0  0  0  0  0  0  0  0  0  0
    3.2110   -9.3029    0.0000 C   0  0  0  0  0  0  0  0  0  0  0  0
    3.0542   -7.8111    0.0000 C   0  0  0  0  0  0  0  0  0  0  0  0
    0.1568   -5.0991    0.0000 C   0  0  0  0  0  0  0  0  0  0  0  0
   -0.0000   -3.6073    0.0000 C   0  0  0  0  0  0  0  0  0  0  0  0
    1.2135   -2.7256    0.0000 C   0  0  0  0  0  0  0  0  0  0  0  0
    0.7500   -1.2990    0.0000 C   0  0  0  0  0  0  0  0  0  0  0  0
    1.5000    0.0000    0.0000 C   0  0  0  0  0  0  0  0  0  0  0  0
    0.7500    1.2990    0.0000 C   0  0  0  0  0  0  0  0  0  0  0  0
    1.5000    2.5981    0.0000 O   0  0  0  0  0  0  0  0  0  0  0  0
   -0.7500    1.2990    0.0000 C   0  0  0  0  0  0  0  0  0  0  0  0
   -1.5000    0.0000    0.0000 C   0  0  0  0  0  0  0  0  0  0  0  0
   -0.7500   -1.2990    0.0000 C   0  0  0  0  0  0  0  0  0  0  0  0
   -1.2135   -2.7256    0.0000 N   0  0  0  0  0  0  0  0  0  0  0  0
   -2.6401   -3.1891    0.0000 C   0  0  0  0  0  0  0  0  0  0  0  0
   -3.7548   -2.1855    0.0000 C   0  0  0  0  0  0  0  0  0  0  0  0
   -5.1814   -2.6490    0.0000 N   0  0  0  0  0  0  0  0  0  0  0  0
   -6.2961   -1.6453    0.0000 C   0  0  0  0  0  0  0  0  0  0  0  0
   -7.7227   -2.1088    0.0000 C   0  0  0  0  0  0  0  0  0  0  0  0
   -8.0346   -3.5760    0.0000 O   0  0  0  0  0  0  0  0  0  0  0  0
   -6.9199   -4.5797    0.0000 C   0  0  0  0  0  0  0  0  0  0  0  0
   -5.4933   -4.1162    0.0000 C   0  0  0  0  0  0  0  0  0  0  0  0
  1  2  2  0
  2  3  1  0
  3  4  1  0
  4  5  2  0
  4  6  1  0
  6  7  2  0
  7  8  1  0
  8  9  1  0
  9 10  2  0
 10 11  1  0
 11 12  2  0
 12 13  1  0
 13 14  2  0
  8 15  2  0
 15 16  1  0
 16 17  2  0
 17 18  1  0
 18 19  2  0
 19 20  1  0
 20 21  1  0
 20 22  2  0
 22 23  1  0
 23 24  2  0
 24 25  1  0
 25 26  1  0
 26 27  1  0
 27 28  1  0
 28 29  1  0
 29 30  1  0
 30 31  1  0
 31 32  1  0
 32 33  1  0
  7  2  1  0
 14  9  1  0
 25 16  1  0
 33 28  1  0
 17  6  1  0
 24 18  1  0
M  END
>  <Compound_ID>  (87) 
CHEMBL521051

>  <Active>  (87) 
1

>  <Smiles>  (87) 
O=C1NC(=O)c2c1c(-c1ccccc1)cc1c2c2cc(O)ccc2n1CCN1CCOCC1

>  <canonical_smi>  (87) 
O=C1NC(=O)c2c1c(-c1ccccc1)cc1c2c2cc(O)ccc2n1CCN1CCOCC1

>  <Set>  (87) 
G2 active

>  <Set_type>  (87) 
Train

>  <MW>  (87) 
441.49

>  <HBD>  (87) 
2

>  <HBA>  (87) 
5

>  <NRB>  (87) 
4

>  <NR>  (87) 
6

>  <NAR>  (87) 
4

>  <PSA>  (87) 
83.8

>  <Standard Type>  (87) 
nan

>  <Standard Relation>  (87) 
nan

>  <Standard Units>  (87) 
nan

>  <Standard Value>  (87) 
nan

>  <Assay ChEMBL ID>  (87) 
nan

>  <Assay Description>  (87) 
nan

>  <BAO Label>  (87) 
nan

$$$$

     RDKit          2D

 29 33  0  0  0  0  0  0  0  0999 V2000
    4.8180   -6.5097    0.0000 O   0  0  0  0  0  0  0  0  0  0  0  0
    4.2079   -5.1394    0.0000 C   0  0  0  0  0  0  0  0  0  0  0  0
    4.9579   -3.8403    0.0000 N   0  0  0  0  0  0  0  0  0  0  0  0
    3.9542   -2.7256    0.0000 C   0  0  0  0  0  0  0  0  0  0  0  0
    4.2660   -1.2584    0.0000 O   0  0  0  0  0  0  0  0  0  0  0  0
    2.5838   -3.3357    0.0000 C   0  0  0  0  0  0  0  0  0  0  0  0
    2.7406   -4.8275    0.0000 C   0  0  0  0  0  0  0  0  0  0  0  0
    1.5271   -5.7092    0.0000 C   0  0  0  0  0  0  0  0  0  0  0  0
    0.1568   -5.0991    0.0000 C   0  0  0  0  0  0  0  0  0  0  0  0
   -0.0000   -3.6073    0.0000 C   0  0  0  0  0  0  0  0  0  0  0  0
    1.2135   -2.7256    0.0000 C   0  0  0  0  0  0  0  0  0  0  0  0
    0.7500   -1.2990    0.0000 C   0  0  0  0  0  0  0  0  0  0  0  0
    1.5000    0.0000    0.0000 C   0  0  0  0  0  0  0  0  0  0  0  0
    0.7500    1.2990    0.0000 C   0  0  0  0  0  0  0  0  0  0  0  0
    1.5000    2.5981    0.0000 O   0  0  0  0  0  0  0  0  0  0  0  0
   -0.7500    1.2990    0.0000 C   0  0  0  0  0  0  0  0  0  0  0  0
   -1.5000    0.0000    0.0000 C   0  0  0  0  0  0  0  0  0  0  0  0
   -0.7500   -1.2990    0.0000 C   0  0  0  0  0  0  0  0  0  0  0  0
   -1.2135   -2.7256    0.0000 N   0  0  0  0  0  0  0  0  0  0  0  0
   -2.6401   -3.1891    0.0000 C   0  0  0  0  0  0  0  0  0  0  0  0
   -3.7548   -2.1855    0.0000 C   0  0  0  0  0  0  0  0  0  0  0  0
   -5.1814   -2.6490    0.0000 C   0  0  0  0  0  0  0  0  0  0  0  0
   -5.4933   -4.1162    0.0000 O   0  0  0  0  0  0  0  0  0  0  0  0
   -6.2961   -1.6453    0.0000 N   0  0  0  0  0  0  0  0  0  0  0  0
   -5.9843   -0.1781    0.0000 C   0  0  0  0  0  0  0  0  0  0  0  0
   -7.0990    0.8256    0.0000 C   0  0  0  0  0  0  0  0  0  0  0  0
   -8.5256    0.3621    0.0000 O   0  0  0  0  0  0  0  0  0  0  0  0
   -8.8374   -1.1051    0.0000 C   0  0  0  0  0  0  0  0  0  0  0  0
   -7.7227   -2.1088    0.0000 C   0  0  0  0  0  0  0  0  0  0  0  0
  1  2  2  0
  2  3  1  0
  3  4  1  0
  4  5  2  0
  4  6  1  0
  6  7  2  0
  7  8  1  0
  8  9  2  0
  9 10  1  0
 10 11  2  0
 11 12  1  0
 12 13  2  0
 13 14  1  0
 14 15  1  0
 14 16  2  0
 16 17  1  0
 17 18  2  0
 18 19  1  0
 19 20  1  0
 20 21  1  0
 21 22  1  0
 22 23  2  0
 22 24  1  0
 24 25  1  0
 25 26  1  0
 26 27  1  0
 27 28  1  0
 28 29  1  0
  7  2  1  0
 19 10  1  0
 29 24  1  0
 11  6  1  0
 18 12  1  0
M  END
>  <Compound_ID>  (88) 
CHEMBL488572

>  <Active>  (88) 
1

>  <Smiles>  (88) 
O=C1NC(=O)c2c1ccc1c2c2cc(O)ccc2n1CCC(=O)N1CCOCC1

>  <canonical_smi>  (88) 
O=C1NC(=O)c2c1ccc1c2c2cc(O)ccc2n1CCC(=O)N1CCOCC1

>  <Set>  (88) 
G2 active

>  <Set_type>  (88) 
Train

>  <MW>  (88) 
393.4

>  <HBD>  (88) 
2

>  <HBA>  (88) 
5

>  <NRB>  (88) 
3

>  <NR>  (88) 
5

>  <NAR>  (88) 
3

>  <PSA>  (88) 
100.87

>  <Standard Type>  (88) 
nan

>  <Standard Relation>  (88) 
nan

>  <Standard Units>  (88) 
nan

>  <Standard Value>  (88) 
nan

>  <Assay ChEMBL ID>  (88) 
nan

>  <Assay Description>  (88) 
nan

>  <BAO Label>  (88) 
nan

$$$$

     RDKit          2D

 38 43  0  0  0  0  0  0  0  0999 V2000
    2.6401   -3.1891    0.0000 C   0  0  0  0  0  0  0  0  0  0  0  0
    1.2135   -2.7256    0.0000 N   0  0  0  0  0  0  0  0  0  0  0  0
    0.7500   -1.2990    0.0000 C   0  0  0  0  0  0  0  0  0  0  0  0
    1.5000    0.0000    0.0000 C   0  0  0  0  0  0  0  0  0  0  0  0
    0.7500    1.2990    0.0000 C   0  0  0  0  0  0  0  0  0  0  0  0
    1.5000    2.5981    0.0000 S   0  0  0  0  0  0  0  0  0  0  0  0
    0.2010    3.3481    0.0000 O   0  0  0  0  0  0  0  0  0  0  0  0
    2.7990    1.8481    0.0000 O   0  0  0  0  0  0  0  0  0  0  0  0
    2.2500    3.8971    0.0000 C   0  0  0  0  0  0  0  0  0  0  0  0
    1.5000    5.1962    0.0000 C   0  0  0  0  0  0  0  0  0  0  0  0
    2.2500    6.4952    0.0000 C   0  0  0  0  0  0  0  0  0  0  0  0
    1.5000    7.7942    0.0000 N   0  0  0  0  0  0  0  0  0  0  0  0
    0.0082    7.9510    0.0000 C   0  0  0  0  0  0  0  0  0  0  0  0
   -0.3037    9.4182    0.0000 C   0  0  0  0  0  0  0  0  0  0  0  0
    0.9954   10.1682    0.0000 C   0  0  0  0  0  0  0  0  0  0  0  0
    2.1101    9.1645    0.0000 C   0  0  0  0  0  0  0  0  0  0  0  0
   -0.7500    1.2990    0.0000 C   0  0  0  0  0  0  0  0  0  0  0  0
   -1.5000    2.5981    0.0000 O   0  0  0  0  0  0  0  0  0  0  0  0
   -1.5000    0.0000    0.0000 C   0  0  0  0  0  0  0  0  0  0  0  0
   -0.7500   -1.2990    0.0000 C   0  0  0  0  0  0  0  0  0  0  0  0
   -1.2135   -2.7256    0.0000 C   0  0  0  0  0  0  0  0  0  0  0  0
   -2.5838   -3.3357    0.0000 C   0  0  0  0  0  0  0  0  0  0  0  0
   -2.7406   -4.8275    0.0000 C   0  0  0  0  0  0  0  0  0  0  0  0
   -1.5271   -5.7092    0.0000 C   0  0  0  0  0  0  0  0  0  0  0  0
   -1.6839   -7.2010    0.0000 C   0  0  0  0  0  0  0  0  0  0  0  0
   -3.0542   -7.8111    0.0000 C   0  0  0  0  0  0  0  0  0  0  0  0
   -3.2110   -9.3029    0.0000 C   0  0  0  0  0  0  0  0  0  0  0  0
   -1.9975  -10.1845    0.0000 C   0  0  0  0  0  0  0  0  0  0  0  0
   -0.6272   -9.5744    0.0000 C   0  0  0  0  0  0  0  0  0  0  0  0
   -0.4704   -8.0826    0.0000 C   0  0  0  0  0  0  0  0  0  0  0  0
    0.8999   -7.4725    0.0000 Cl  0  0  0  0  0  0  0  0  0  0  0  0
   -0.1568   -5.0991    0.0000 C   0  0  0  0  0  0  0  0  0  0  0  0
   -0.0000   -3.6073    0.0000 C   0  0  0  0  0  0  0  0  0  0  0  0
   -4.2079   -5.1394    0.0000 C   0  0  0  0  0  0  0  0  0  0  0  0
   -4.8180   -6.5097    0.0000 O   0  0  0  0  0  0  0  0  0  0  0  0
   -4.9579   -3.8403    0.0000 N   0  0  0  0  0  0  0  0  0  0  0  0
   -3.9542   -2.7256    0.0000 C   0  0  0  0  0  0  0  0  0  0  0  0
   -4.2660   -1.2584    0.0000 O   0  0  0  0  0  0  0  0  0  0  0  0
  1  2  1  0
  2  3  1  0
  3  4  2  0
  4  5  1  0
  5  6  1  0
  6  7  2  0
  6  8  2  0
  6  9  1  0
  9 10  1  0
 10 11  1  0
 11 12  1  0
 12 13  1  0
 13 14  2  0
 14 15  1  0
 15 16  2  0
  5 17  2  0
 17 18  1  0
 17 19  1  0
 19 20  2  0
 20 21  1  0
 21 22  2  0
 22 23  1  0
 23 24  2  0
 24 25  1  0
 25 26  2  0
 26 27  1  0
 27 28  2  0
 28 29  1  0
 29 30  2  0
 30 31  1  0
 24 32  1  0
 32 33  2  0
 23 34  1  0
 34 35  2  0
 34 36  1  0
 36 37  1  0
 37 38  2  0
 33  2  1  0
 20  3  1  0
 33 21  1  0
 16 12  1  0
 37 22  1  0
 30 25  1  0
M  END
>  <Compound_ID>  (89) 
CHEMBL520984

>  <Active>  (89) 
1

>  <Smiles>  (89) 
Cn1c2cc(S(=O)(=O)CCCn3cccc3)c(O)cc2c2c3c(c(-c4ccccc4Cl)cc21)C(=O)NC3=O

>  <canonical_smi>  (89) 
Cn1c2cc(S(=O)(=O)CCCn3cccc3)c(O)cc2c2c3c(c(-c4ccccc4Cl)cc21)C(=O)NC3=O

>  <Set>  (89) 
G2 active

>  <Set_type>  (89) 
Train

>  <MW>  (89) 
548.02

>  <HBD>  (89) 
2

>  <HBA>  (89) 
5

>  <NRB>  (89) 
6

>  <NR>  (89) 
6

>  <NAR>  (89) 
5

>  <PSA>  (89) 
110.4

>  <Standard Type>  (89) 
nan

>  <Standard Relation>  (89) 
nan

>  <Standard Units>  (89) 
nan

>  <Standard Value>  (89) 
nan

>  <Assay ChEMBL ID>  (89) 
nan

>  <Assay Description>  (89) 
nan

>  <BAO Label>  (89) 
nan

$$$$

     RDKit          2D

 32 37  0  0  0  0  0  0  0  0999 V2000
    4.8180   -6.5097    0.0000 O   0  0  0  0  0  0  0  0  0  0  0  0
    4.2079   -5.1394    0.0000 C   0  0  0  0  0  0  0  0  0  0  0  0
    4.9579   -3.8403    0.0000 N   0  0  0  0  0  0  0  0  0  0  0  0
    3.9542   -2.7256    0.0000 C   0  0  0  0  0  0  0  0  0  0  0  0
    4.2660   -1.2584    0.0000 O   0  0  0  0  0  0  0  0  0  0  0  0
    2.5838   -3.3357    0.0000 C   0  0  0  0  0  0  0  0  0  0  0  0
    2.7406   -4.8275    0.0000 C   0  0  0  0  0  0  0  0  0  0  0  0
    1.5271   -5.7092    0.0000 C   0  0  0  0  0  0  0  0  0  0  0  0
    1.6839   -7.2010    0.0000 C   0  0  0  0  0  0  0  0  0  0  0  0
    0.4704   -8.0826    0.0000 C   0  0  0  0  0  0  0  0  0  0  0  0
    0.6272   -9.5744    0.0000 C   0  0  0  0  0  0  0  0  0  0  0  0
    1.9975  -10.1845    0.0000 C   0  0  0  0  0  0  0  0  0  0  0  0
    3.2110   -9.3029    0.0000 C   0  0  0  0  0  0  0  0  0  0  0  0
    3.0542   -7.8111    0.0000 C   0  0  0  0  0  0  0  0  0  0  0  0
    0.1568   -5.0991    0.0000 C   0  0  0  0  0  0  0  0  0  0  0  0
   -0.0000   -3.6073    0.0000 C   0  0  0  0  0  0  0  0  0  0  0  0
    1.2135   -2.7256    0.0000 C   0  0  0  0  0  0  0  0  0  0  0  0
    0.7500   -1.2990    0.0000 C   0  0  0  0  0  0  0  0  0  0  0  0
    1.5000    0.0000    0.0000 C   0  0  0  0  0  0  0  0  0  0  0  0
    0.7500    1.2990    0.0000 C   0  0  0  0  0  0  0  0  0  0  0  0
    1.5000    2.5981    0.0000 O   0  0  0  0  0  0  0  0  0  0  0  0
   -0.7500    1.2990    0.0000 C   0  0  0  0  0  0  0  0  0  0  0  0
   -1.5000    0.0000    0.0000 C   0  0  0  0  0  0  0  0  0  0  0  0
   -0.7500   -1.2990    0.0000 C   0  0  0  0  0  0  0  0  0  0  0  0
   -1.2135   -2.7256    0.0000 N   0  0  0  0  0  0  0  0  0  0  0  0
   -2.6401   -3.1891    0.0000 C   0  0  0  0  0  0  0  0  0  0  0  0
   -3.7548   -2.1855    0.0000 C   0  0  0  0  0  0  0  0  0  0  0  0
   -5.1814   -2.6490    0.0000 N   0  0  0  0  0  0  0  0  0  0  0  0
   -5.6449   -4.0756    0.0000 C   0  0  0  0  0  0  0  0  0  0  0  0
   -7.1449   -4.0756    0.0000 C   0  0  0  0  0  0  0  0  0  0  0  0
   -7.6085   -2.6490    0.0000 N   0  0  0  0  0  0  0  0  0  0  0  0
   -6.3949   -1.7673    0.0000 C   0  0  0  0  0  0  0  0  0  0  0  0
  1  2  2  0
  2  3  1  0
  3  4  1  0
  4  5  2  0
  4  6  1  0
  6  7  2  0
  7  8  1  0
  8  9  1  0
  9 10  2  0
 10 11  1  0
 11 12  2  0
 12 13  1  0
 13 14  2  0
  8 15  2  0
 15 16  1  0
 16 17  2  0
 17 18  1  0
 18 19  2  0
 19 20  1  0
 20 21  1  0
 20 22  2  0
 22 23  1  0
 23 24  2  0
 24 25  1  0
 25 26  1  0
 26 27  1  0
 27 28  1  0
 28 29  1  0
 29 30  2  0
 30 31  1  0
 31 32  2  0
  7  2  1  0
 14  9  1  0
 25 16  1  0
 32 28  1  0
 17  6  1  0
 24 18  1  0
M  END
>  <Compound_ID>  (90) 
CHEMBL488899

>  <Active>  (90) 
1

>  <Smiles>  (90) 
O=C1NC(=O)c2c1c(-c1ccccc1)cc1c2c2cc(O)ccc2n1CCn1ccnc1

>  <canonical_smi>  (90) 
O=C1NC(=O)c2c1c(-c1ccccc1)cc1c2c2cc(O)ccc2n1CCn1ccnc1

>  <Set>  (90) 
G2 active

>  <Set_type>  (90) 
Train

>  <MW>  (90) 
422.44

>  <HBD>  (90) 
2

>  <HBA>  (90) 
4

>  <NRB>  (90) 
4

>  <NR>  (90) 
6

>  <NAR>  (90) 
5

>  <PSA>  (90) 
89.15

>  <Standard Type>  (90) 
nan

>  <Standard Relation>  (90) 
nan

>  <Standard Units>  (90) 
nan

>  <Standard Value>  (90) 
nan

>  <Assay ChEMBL ID>  (90) 
nan

>  <Assay Description>  (90) 
nan

>  <BAO Label>  (90) 
nan

$$$$

     RDKit          2D

 35 40  0  0  0  0  0  0  0  0999 V2000
    5.6260  -10.9888    0.0000 C   0  0  0  0  0  0  0  0  0  0  0  0
    5.3142   -9.5216    0.0000 N   0  0  0  0  0  0  0  0  0  0  0  0
    3.8876   -9.0580    0.0000 C   0  0  0  0  0  0  0  0  0  0  0  0
    3.5757   -7.5908    0.0000 C   0  0  0  0  0  0  0  0  0  0  0  0
    4.6904   -6.5871    0.0000 N   0  0  0  0  0  0  0  0  0  0  0  0
    4.3786   -5.1199    0.0000 C   0  0  0  0  0  0  0  0  0  0  0  0
    2.9520   -4.6564    0.0000 C   0  0  0  0  0  0  0  0  0  0  0  0
    2.6401   -3.1891    0.0000 C   0  0  0  0  0  0  0  0  0  0  0  0
    1.2135   -2.7256    0.0000 N   0  0  0  0  0  0  0  0  0  0  0  0
    0.7500   -1.2990    0.0000 C   0  0  0  0  0  0  0  0  0  0  0  0
    1.5000    0.0000    0.0000 C   0  0  0  0  0  0  0  0  0  0  0  0
    0.7500    1.2990    0.0000 C   0  0  0  0  0  0  0  0  0  0  0  0
   -0.7500    1.2990    0.0000 C   0  0  0  0  0  0  0  0  0  0  0  0
   -1.5000    2.5981    0.0000 O   0  0  0  0  0  0  0  0  0  0  0  0
   -1.5000    0.0000    0.0000 C   0  0  0  0  0  0  0  0  0  0  0  0
   -0.7500   -1.2990    0.0000 C   0  0  0  0  0  0  0  0  0  0  0  0
   -1.2135   -2.7256    0.0000 C   0  0  0  0  0  0  0  0  0  0  0  0
   -2.5838   -3.3357    0.0000 C   0  0  0  0  0  0  0  0  0  0  0  0
   -2.7406   -4.8275    0.0000 C   0  0  0  0  0  0  0  0  0  0  0  0
   -1.5271   -5.7092    0.0000 C   0  0  0  0  0  0  0  0  0  0  0  0
   -1.6839   -7.2010    0.0000 C   0  0  0  0  0  0  0  0  0  0  0  0
   -3.0542   -7.8111    0.0000 C   0  0  0  0  0  0  0  0  0  0  0  0
   -3.2110   -9.3029    0.0000 C   0  0  0  0  0  0  0  0  0  0  0  0
   -1.9975  -10.1845    0.0000 C   0  0  0  0  0  0  0  0  0  0  0  0
   -0.6272   -9.5744    0.0000 C   0  0  0  0  0  0  0  0  0  0  0  0
   -0.4704   -8.0826    0.0000 C   0  0  0  0  0  0  0  0  0  0  0  0
   -0.1568   -5.0991    0.0000 C   0  0  0  0  0  0  0  0  0  0  0  0
   -0.0000   -3.6073    0.0000 C   0  0  0  0  0  0  0  0  0  0  0  0
   -4.2079   -5.1394    0.0000 C   0  0  0  0  0  0  0  0  0  0  0  0
   -4.8180   -6.5097    0.0000 O   0  0  0  0  0  0  0  0  0  0  0  0
   -4.9579   -3.8403    0.0000 N   0  0  0  0  0  0  0  0  0  0  0  0
   -3.9542   -2.7256    0.0000 C   0  0  0  0  0  0  0  0  0  0  0  0
   -4.2660   -1.2584    0.0000 O   0  0  0  0  0  0  0  0  0  0  0  0
    6.1170   -7.0506    0.0000 C   0  0  0  0  0  0  0  0  0  0  0  0
    6.4289   -8.5179    0.0000 C   0  0  0  0  0  0  0  0  0  0  0  0
  1  2  1  0
  2  3  1  0
  3  4  1  0
  4  5  1  0
  5  6  1  0
  6  7  1  0
  7  8  1  0
  8  9  1  0
  9 10  1  0
 10 11  2  0
 11 12  1  0
 12 13  2  0
 13 14  1  0
 13 15  1  0
 15 16  2  0
 16 17  1  0
 17 18  2  0
 18 19  1  0
 19 20  2  0
 20 21  1  0
 21 22  2  0
 22 23  1  0
 23 24  2  0
 24 25  1  0
 25 26  2  0
 20 27  1  0
 27 28  2  0
 19 29  1  0
 29 30  2  0
 29 31  1  0
 31 32  1  0
 32 33  2  0
  5 34  1  0
 34 35  1  0
 35  2  1  0
 28  9  1  0
 16 10  1  0
 28 17  1  0
 32 18  1  0
 26 21  1  0
M  END
>  <Compound_ID>  (91) 
CHEMBL453347

>  <Active>  (91) 
1

>  <Smiles>  (91) 
CN1CCN(CCCn2c3ccc(O)cc3c3c4c(c(-c5ccccc5)cc32)C(=O)NC4=O)CC1

>  <canonical_smi>  (91) 
CN1CCN(CCCn2c3ccc(O)cc3c3c4c(c(-c5ccccc5)cc32)C(=O)NC4=O)CC1

>  <Set>  (91) 
G2 active

>  <Set_type>  (91) 
Train

>  <MW>  (91) 
468.56

>  <HBD>  (91) 
2

>  <HBA>  (91) 
5

>  <NRB>  (91) 
5

>  <NR>  (91) 
6

>  <NAR>  (91) 
4

>  <PSA>  (91) 
77.81

>  <Standard Type>  (91) 
nan

>  <Standard Relation>  (91) 
nan

>  <Standard Units>  (91) 
nan

>  <Standard Value>  (91) 
nan

>  <Assay ChEMBL ID>  (91) 
nan

>  <Assay Description>  (91) 
nan

>  <BAO Label>  (91) 
nan

$$$$

     RDKit          2D

 25 29  0  0  0  0  0  0  0  0999 V2000
   -4.8180   -6.5097    0.0000 O   0  0  0  0  0  0  0  0  0  0  0  0
   -4.2079   -5.1394    0.0000 C   0  0  0  0  0  0  0  0  0  0  0  0
   -4.9579   -3.8403    0.0000 N   0  0  0  0  0  0  0  0  0  0  0  0
   -3.9542   -2.7256    0.0000 C   0  0  0  0  0  0  0  0  0  0  0  0
   -4.2660   -1.2584    0.0000 O   0  0  0  0  0  0  0  0  0  0  0  0
   -2.5838   -3.3357    0.0000 C   0  0  0  0  0  0  0  0  0  0  0  0
   -2.7406   -4.8275    0.0000 C   0  0  0  0  0  0  0  0  0  0  0  0
   -1.5271   -5.7092    0.0000 C   0  0  0  0  0  0  0  0  0  0  0  0
   -1.6839   -7.2010    0.0000 C   0  0  0  0  0  0  0  0  0  0  0  0
   -3.0542   -7.8111    0.0000 C   0  0  0  0  0  0  0  0  0  0  0  0
   -3.2110   -9.3029    0.0000 C   0  0  0  0  0  0  0  0  0  0  0  0
   -1.9975  -10.1845    0.0000 C   0  0  0  0  0  0  0  0  0  0  0  0
   -0.6272   -9.5744    0.0000 N   0  0  0  0  0  0  0  0  0  0  0  0
   -0.4704   -8.0826    0.0000 C   0  0  0  0  0  0  0  0  0  0  0  0
   -0.1568   -5.0991    0.0000 C   0  0  0  0  0  0  0  0  0  0  0  0
   -0.0000   -3.6073    0.0000 C   0  0  0  0  0  0  0  0  0  0  0  0
    1.2135   -2.7256    0.0000 N   0  0  0  0  0  0  0  0  0  0  0  0
    0.7500   -1.2990    0.0000 C   0  0  0  0  0  0  0  0  0  0  0  0
    1.5000    0.0000    0.0000 C   0  0  0  0  0  0  0  0  0  0  0  0
    0.7500    1.2990    0.0000 C   0  0  0  0  0  0  0  0  0  0  0  0
   -0.7500    1.2990    0.0000 C   0  0  0  0  0  0  0  0  0  0  0  0
   -1.5000    2.5981    0.0000 O   0  0  0  0  0  0  0  0  0  0  0  0
   -1.5000    0.0000    0.0000 C   0  0  0  0  0  0  0  0  0  0  0  0
   -0.7500   -1.2990    0.0000 C   0  0  0  0  0  0  0  0  0  0  0  0
   -1.2135   -2.7256    0.0000 C   0  0  0  0  0  0  0  0  0  0  0  0
  1  2  2  0
  2  3  1  0
  3  4  1  0
  4  5  2  0
  4  6  1  0
  6  7  2  0
  7  8  1  0
  8  9  1  0
  9 10  2  0
 10 11  1  0
 11 12  2  0
 12 13  1  0
 13 14  2  0
  8 15  2  0
 15 16  1  0
 16 17  1  0
 17 18  1  0
 18 19  2  0
 19 20  1  0
 20 21  2  0
 21 22  1  0
 21 23  1  0
 23 24  2  0
 24 25  1  0
  7  2  1  0
 14  9  1  0
 25 16  2  0
 25  6  1  0
 24 18  1  0
M  END
>  <Compound_ID>  (92) 
CHEMBL214172

>  <Active>  (92) 
1

>  <Smiles>  (92) 
O=C1NC(=O)c2c1c(-c1cccnc1)cc1[nH]c3ccc(O)cc3c21

>  <canonical_smi>  (92) 
O=C1NC(=O)c2c1c(-c1cccnc1)cc1[nH]c3ccc(O)cc3c21

>  <Set>  (92) 
G2 active

>  <Set_type>  (92) 
Train

>  <MW>  (92) 
329.32

>  <HBD>  (92) 
3

>  <HBA>  (92) 
4

>  <NRB>  (92) 
1

>  <NR>  (92) 
5

>  <NAR>  (92) 
4

>  <PSA>  (92) 
95.08

>  <Standard Type>  (92) 
nan

>  <Standard Relation>  (92) 
nan

>  <Standard Units>  (92) 
nan

>  <Standard Value>  (92) 
nan

>  <Assay ChEMBL ID>  (92) 
nan

>  <Assay Description>  (92) 
nan

>  <BAO Label>  (92) 
nan

$$$$

     RDKit          2D

 31 35  0  0  0  0  0  0  0  0999 V2000
    4.6904   -6.5871    0.0000 N   0  0  0  0  0  0  0  0  0  0  0  0
    4.3786   -5.1199    0.0000 C   0  0  0  0  0  0  0  0  0  0  0  0
    5.4933   -4.1162    0.0000 O   0  0  0  0  0  0  0  0  0  0  0  0
    2.9520   -4.6564    0.0000 C   0  0  0  0  0  0  0  0  0  0  0  0
    2.6401   -3.1891    0.0000 C   0  0  0  0  0  0  0  0  0  0  0  0
    1.2135   -2.7256    0.0000 N   0  0  0  0  0  0  0  0  0  0  0  0
    0.7500   -1.2990    0.0000 C   0  0  0  0  0  0  0  0  0  0  0  0
    1.5000    0.0000    0.0000 C   0  0  0  0  0  0  0  0  0  0  0  0
    0.7500    1.2990    0.0000 C   0  0  0  0  0  0  0  0  0  0  0  0
   -0.7500    1.2990    0.0000 C   0  0  0  0  0  0  0  0  0  0  0  0
   -1.5000    2.5981    0.0000 O   0  0  0  0  0  0  0  0  0  0  0  0
   -1.5000    0.0000    0.0000 C   0  0  0  0  0  0  0  0  0  0  0  0
   -0.7500   -1.2990    0.0000 C   0  0  0  0  0  0  0  0  0  0  0  0
   -1.2135   -2.7256    0.0000 C   0  0  0  0  0  0  0  0  0  0  0  0
   -2.5838   -3.3357    0.0000 C   0  0  0  0  0  0  0  0  0  0  0  0
   -2.7406   -4.8275    0.0000 C   0  0  0  0  0  0  0  0  0  0  0  0
   -1.5271   -5.7092    0.0000 C   0  0  0  0  0  0  0  0  0  0  0  0
   -1.6839   -7.2010    0.0000 C   0  0  0  0  0  0  0  0  0  0  0  0
   -3.0542   -7.8111    0.0000 C   0  0  0  0  0  0  0  0  0  0  0  0
   -3.2110   -9.3029    0.0000 C   0  0  0  0  0  0  0  0  0  0  0  0
   -1.9975  -10.1845    0.0000 C   0  0  0  0  0  0  0  0  0  0  0  0
   -0.6272   -9.5744    0.0000 C   0  0  0  0  0  0  0  0  0  0  0  0
   -0.4704   -8.0826    0.0000 C   0  0  0  0  0  0  0  0  0  0  0  0
    0.8999   -7.4725    0.0000 Cl  0  0  0  0  0  0  0  0  0  0  0  0
   -0.1568   -5.0991    0.0000 C   0  0  0  0  0  0  0  0  0  0  0  0
   -0.0000   -3.6073    0.0000 C   0  0  0  0  0  0  0  0  0  0  0  0
   -4.2079   -5.1394    0.0000 C   0  0  0  0  0  0  0  0  0  0  0  0
   -4.8180   -6.5097    0.0000 O   0  0  0  0  0  0  0  0  0  0  0  0
   -4.9579   -3.8403    0.0000 N   0  0  0  0  0  0  0  0  0  0  0  0
   -3.9542   -2.7256    0.0000 C   0  0  0  0  0  0  0  0  0  0  0  0
   -4.2660   -1.2584    0.0000 O   0  0  0  0  0  0  0  0  0  0  0  0
  1  2  1  0
  2  3  2  0
  2  4  1  0
  4  5  1  0
  5  6  1  0
  6  7  1  0
  7  8  2  0
  8  9  1  0
  9 10  2  0
 10 11  1  0
 10 12  1  0
 12 13  2  0
 13 14  1  0
 14 15  2  0
 15 16  1  0
 16 17  2  0
 17 18  1  0
 18 19  2  0
 19 20  1  0
 20 21  2  0
 21 22  1  0
 22 23  2  0
 23 24  1  0
 17 25  1  0
 25 26  2  0
 16 27  1  0
 27 28  2  0
 27 29  1  0
 29 30  1  0
 30 31  2  0
 26  6  1  0
 13  7  1  0
 26 14  1  0
 30 15  1  0
 23 18  1  0
M  END
>  <Compound_ID>  (93) 
CHEMBL472542

>  <Active>  (93) 
1

>  <Smiles>  (93) 
NC(=O)CCn1c2ccc(O)cc2c2c3c(c(-c4ccccc4Cl)cc21)C(=O)NC3=O

>  <canonical_smi>  (93) 
NC(=O)CCn1c2ccc(O)cc2c2c3c(c(-c4ccccc4Cl)cc21)C(=O)NC3=O

>  <Set>  (93) 
G2 active

>  <Set_type>  (93) 
Test

>  <MW>  (93) 
433.85

>  <HBD>  (93) 
3

>  <HBA>  (93) 
4

>  <NRB>  (93) 
4

>  <NR>  (93) 
5

>  <NAR>  (93) 
4

>  <PSA>  (93) 
114.42

>  <Standard Type>  (93) 
nan

>  <Standard Relation>  (93) 
nan

>  <Standard Units>  (93) 
nan

>  <Standard Value>  (93) 
nan

>  <Assay ChEMBL ID>  (93) 
nan

>  <Assay Description>  (93) 
nan

>  <BAO Label>  (93) 
nan

$$$$

     RDKit          2D

 31 35  0  0  0  0  0  0  0  0999 V2000
    4.9032   -6.2965    0.0000 O   0  0  0  0  0  0  0  0  0  0  0  0
    4.2079   -5.1394    0.0000 C   0  0  0  0  0  0  0  0  0  0  0  0
    4.9579   -3.8403    0.0000 N   0  0  0  0  0  0  0  0  0  0  0  0
    3.9542   -2.7256    0.0000 C   0  0  0  0  0  0  0  0  0  0  0  0
    4.2660   -1.2584    0.0000 O   0  0  0  0  0  0  0  0  0  0  0  0
    2.5838   -3.3357    0.0000 C   0  0  0  0  0  0  0  0  0  0  0  0
    2.7406   -4.8275    0.0000 C   0  0  0  0  0  0  0  0  0  0  0  0
    1.5271   -5.7092    0.0000 C   0  0  0  0  0  0  0  0  0  0  0  0
    1.6839   -7.2010    0.0000 C   0  0  0  0  0  0  0  0  0  0  0  0
    0.4704   -8.0826    0.0000 C   0  0  0  0  0  0  0  0  0  0  0  0
   -0.8999   -7.4725    0.0000 Cl  0  0  0  0  0  0  0  0  0  0  0  0
    0.6272   -9.5744    0.0000 C   0  0  0  0  0  0  0  0  0  0  0  0
    1.9975  -10.1845    0.0000 C   0  0  0  0  0  0  0  0  0  0  0  0
    3.2110   -9.3029    0.0000 C   0  0  0  0  0  0  0  0  0  0  0  0
    3.0542   -7.8111    0.0000 C   0  0  0  0  0  0  0  0  0  0  0  0
    4.2350   -7.1566    0.0000 Cl  0  0  0  0  0  0  0  0  0  0  0  0
    0.1568   -5.0991    0.0000 C   0  0  0  0  0  0  0  0  0  0  0  0
    0.0000   -3.6073    0.0000 C   0  0  0  0  0  0  0  0  0  0  0  0
    1.2135   -2.7256    0.0000 C   0  0  0  0  0  0  0  0  0  0  0  0
    0.7500   -1.2990    0.0000 C   0  0  0  0  0  0  0  0  0  0  0  0
    1.5000    0.0000    0.0000 C   0  0  0  0  0  0  0  0  0  0  0  0
    0.7500    1.2990    0.0000 C   0  0  0  0  0  0  0  0  0  0  0  0
    1.5000    2.5981    0.0000 O   0  0  0  0  0  0  0  0  0  0  0  0
   -0.7500    1.2990    0.0000 C   0  0  0  0  0  0  0  0  0  0  0  0
   -1.5000    0.0000    0.0000 C   0  0  0  0  0  0  0  0  0  0  0  0
   -0.7500   -1.2990    0.0000 C   0  0  0  0  0  0  0  0  0  0  0  0
   -1.2135   -2.7256    0.0000 N   0  0  0  0  0  0  0  0  0  0  0  0
   -2.6401   -3.1891    0.0000 C   0  0  0  0  0  0  0  0  0  0  0  0
   -3.7548   -2.1855    0.0000 C   0  0  0  0  0  0  0  0  0  0  0  0
   -5.1814   -2.6490    0.0000 C   0  0  0  0  0  0  0  0  0  0  0  0
   -6.2961   -1.6453    0.0000 O   0  0  0  0  0  0  0  0  0  0  0  0
  1  2  2  0
  2  3  1  0
  3  4  1  0
  4  5  2  0
  4  6  1  0
  6  7  2  0
  7  8  1  0
  8  9  1  0
  9 10  2  0
 10 11  1  0
 10 12  1  0
 12 13  2  0
 13 14  1  0
 14 15  2  0
 15 16  1  0
  8 17  2  0
 17 18  1  0
 18 19  2  0
 19 20  1  0
 20 21  2  0
 21 22  1  0
 22 23  1  0
 22 24  2  0
 24 25  1  0
 25 26  2  0
 26 27  1  0
 27 28  1  0
 28 29  1  0
 29 30  1  0
 30 31  1  0
  7  2  1  0
 15  9  1  0
 27 18  1  0
 19  6  1  0
 26 20  1  0
M  END
>  <Compound_ID>  (94) 
CHEMBL471163

>  <Active>  (94) 
1

>  <Smiles>  (94) 
O=C1NC(=O)c2c1c(-c1c(Cl)cccc1Cl)cc1c2c2cc(O)ccc2n1CCCO

>  <canonical_smi>  (94) 
O=C1NC(=O)c2c1c(-c1c(Cl)cccc1Cl)cc1c2c2cc(O)ccc2n1CCCO

>  <Set>  (94) 
G2 active

>  <Set_type>  (94) 
Test

>  <MW>  (94) 
455.3

>  <HBD>  (94) 
3

>  <HBA>  (94) 
4

>  <NRB>  (94) 
4

>  <NR>  (94) 
5

>  <NAR>  (94) 
4

>  <PSA>  (94) 
91.56

>  <Standard Type>  (94) 
nan

>  <Standard Relation>  (94) 
nan

>  <Standard Units>  (94) 
nan

>  <Standard Value>  (94) 
nan

>  <Assay ChEMBL ID>  (94) 
nan

>  <Assay Description>  (94) 
nan

>  <BAO Label>  (94) 
nan

$$$$

     RDKit          2D

 36 41  0  0  0  0  0  0  0  0999 V2000
   -4.8180   -6.5097    0.0000 O   0  0  0  0  0  0  0  0  0  0  0  0
   -4.2079   -5.1394    0.0000 C   0  0  0  0  0  0  0  0  0  0  0  0
   -4.9579   -3.8403    0.0000 N   0  0  0  0  0  0  0  0  0  0  0  0
   -3.9542   -2.7256    0.0000 C   0  0  0  0  0  0  0  0  0  0  0  0
   -4.2660   -1.2584    0.0000 O   0  0  0  0  0  0  0  0  0  0  0  0
   -2.5838   -3.3357    0.0000 C   0  0  0  0  0  0  0  0  0  0  0  0
   -2.7406   -4.8275    0.0000 C   0  0  0  0  0  0  0  0  0  0  0  0
   -1.5271   -5.7092    0.0000 C   0  0  0  0  0  0  0  0  0  0  0  0
   -1.6839   -7.2010    0.0000 C   0  0  0  0  0  0  0  0  0  0  0  0
   -3.0542   -7.8111    0.0000 C   0  0  0  0  0  0  0  0  0  0  0  0
   -3.2110   -9.3029    0.0000 C   0  0  0  0  0  0  0  0  0  0  0  0
   -1.9975  -10.1845    0.0000 C   0  0  0  0  0  0  0  0  0  0  0  0
   -0.6272   -9.5744    0.0000 C   0  0  0  0  0  0  0  0  0  0  0  0
   -0.4704   -8.0826    0.0000 C   0  0  0  0  0  0  0  0  0  0  0  0
    0.8999   -7.4725    0.0000 Cl  0  0  0  0  0  0  0  0  0  0  0  0
   -0.1568   -5.0991    0.0000 C   0  0  0  0  0  0  0  0  0  0  0  0
   -0.0000   -3.6073    0.0000 C   0  0  0  0  0  0  0  0  0  0  0  0
    1.2135   -2.7256    0.0000 N   0  0  0  0  0  0  0  0  0  0  0  0
    0.7500   -1.2990    0.0000 C   0  0  0  0  0  0  0  0  0  0  0  0
    1.5000    0.0000    0.0000 C   0  0  0  0  0  0  0  0  0  0  0  0
    0.7500    1.2990    0.0000 C   0  0  0  0  0  0  0  0  0  0  0  0
    1.5000    2.5981    0.0000 O   0  0  0  0  0  0  0  0  0  0  0  0
    3.0000    2.5981    0.0000 C   0  0  0  0  0  0  0  0  0  0  0  0
    3.7500    3.8971    0.0000 C   0  0  0  0  0  0  0  0  0  0  0  0
    5.2500    3.8971    0.0000 C   0  0  0  0  0  0  0  0  0  0  0  0
    6.0000    5.1962    0.0000 N   0  0  0  0  0  0  0  0  0  0  0  0
    7.5000    5.1962    0.0000 C   0  0  0  0  0  0  0  0  0  0  0  0
    8.2500    6.4952    0.0000 C   0  0  0  0  0  0  0  0  0  0  0  0
    7.5000    7.7942    0.0000 O   0  0  0  0  0  0  0  0  0  0  0  0
    6.0000    7.7942    0.0000 C   0  0  0  0  0  0  0  0  0  0  0  0
    5.2500    6.4952    0.0000 C   0  0  0  0  0  0  0  0  0  0  0  0
   -0.7500    1.2990    0.0000 C   0  0  0  0  0  0  0  0  0  0  0  0
   -1.5000    2.5981    0.0000 O   0  0  0  0  0  0  0  0  0  0  0  0
   -1.5000    0.0000    0.0000 C   0  0  0  0  0  0  0  0  0  0  0  0
   -0.7500   -1.2990    0.0000 C   0  0  0  0  0  0  0  0  0  0  0  0
   -1.2135   -2.7256    0.0000 C   0  0  0  0  0  0  0  0  0  0  0  0
  1  2  2  0
  2  3  1  0
  3  4  1  0
  4  5  2  0
  4  6  1  0
  6  7  2  0
  7  8  1  0
  8  9  1  0
  9 10  2  0
 10 11  1  0
 11 12  2  0
 12 13  1  0
 13 14  2  0
 14 15  1  0
  8 16  2  0
 16 17  1  0
 17 18  1  0
 18 19  1  0
 19 20  2  0
 20 21  1  0
 21 22  1  0
 22 23  1  0
 23 24  1  0
 24 25  1  0
 25 26  1  0
 26 27  1  0
 27 28  1  0
 28 29  1  0
 29 30  1  0
 30 31  1  0
 21 32  2  0
 32 33  1  0
 32 34  1  0
 34 35  2  0
 35 36  1  0
  7  2  1  0
 14  9  1  0
 36 17  2  0
 36  6  1  0
 35 19  1  0
 31 26  1  0
M  END
>  <Compound_ID>  (95) 
CHEMBL256480

>  <Active>  (95) 
1

>  <Smiles>  (95) 
O=C1NC(=O)c2c1c(-c1ccccc1Cl)cc1[nH]c3cc(OCCCN4CCOCC4)c(O)cc3c21

>  <canonical_smi>  (95) 
O=C1NC(=O)c2c1c(-c1ccccc1Cl)cc1[nH]c3cc(OCCCN4CCOCC4)c(O)cc3c21

>  <Set>  (95) 
G2 active

>  <Set_type>  (95) 
Test

>  <MW>  (95) 
505.96

>  <HBD>  (95) 
3

>  <HBA>  (95) 
6

>  <NRB>  (95) 
6

>  <NR>  (95) 
6

>  <NAR>  (95) 
4

>  <PSA>  (95) 
103.89

>  <Standard Type>  (95) 
nan

>  <Standard Relation>  (95) 
nan

>  <Standard Units>  (95) 
nan

>  <Standard Value>  (95) 
nan

>  <Assay ChEMBL ID>  (95) 
nan

>  <Assay Description>  (95) 
nan

>  <BAO Label>  (95) 
nan

$$$$

     RDKit          2D

 37 42  0  0  0  0  0  0  0  0999 V2000
    2.6401   -3.1891    0.0000 C   0  0  0  0  0  0  0  0  0  0  0  0
    1.2135   -2.7256    0.0000 N   0  0  0  0  0  0  0  0  0  0  0  0
    0.7500   -1.2990    0.0000 C   0  0  0  0  0  0  0  0  0  0  0  0
    1.5000    0.0000    0.0000 C   0  0  0  0  0  0  0  0  0  0  0  0
    0.7500    1.2990    0.0000 C   0  0  0  0  0  0  0  0  0  0  0  0
    1.5000    2.5981    0.0000 C   0  0  0  0  0  0  0  0  0  0  0  0
    3.0000    2.5981    0.0000 C   0  0  0  0  0  0  0  0  0  0  0  0
    3.7500    3.8971    0.0000 C   0  0  0  0  0  0  0  0  0  0  0  0
    5.2500    3.8971    0.0000 C   0  0  0  0  0  0  0  0  0  0  0  0
    6.0000    5.1962    0.0000 N   0  0  0  0  0  0  0  0  0  0  0  0
    7.5000    5.1962    0.0000 C   0  0  0  0  0  0  0  0  0  0  0  0
    8.2500    6.4952    0.0000 C   0  0  0  0  0  0  0  0  0  0  0  0
    7.5000    7.7942    0.0000 O   0  0  0  0  0  0  0  0  0  0  0  0
    6.0000    7.7942    0.0000 C   0  0  0  0  0  0  0  0  0  0  0  0
    5.2500    6.4952    0.0000 C   0  0  0  0  0  0  0  0  0  0  0  0
   -0.7500    1.2990    0.0000 C   0  0  0  0  0  0  0  0  0  0  0  0
   -1.5000    2.5981    0.0000 O   0  0  0  0  0  0  0  0  0  0  0  0
   -1.5000    0.0000    0.0000 C   0  0  0  0  0  0  0  0  0  0  0  0
   -0.7500   -1.2990    0.0000 C   0  0  0  0  0  0  0  0  0  0  0  0
   -1.2135   -2.7256    0.0000 C   0  0  0  0  0  0  0  0  0  0  0  0
   -2.5838   -3.3357    0.0000 C   0  0  0  0  0  0  0  0  0  0  0  0
   -2.7406   -4.8275    0.0000 C   0  0  0  0  0  0  0  0  0  0  0  0
   -1.5271   -5.7092    0.0000 C   0  0  0  0  0  0  0  0  0  0  0  0
   -1.6839   -7.2010    0.0000 C   0  0  0  0  0  0  0  0  0  0  0  0
   -3.0542   -7.8111    0.0000 C   0  0  0  0  0  0  0  0  0  0  0  0
   -3.2110   -9.3029    0.0000 C   0  0  0  0  0  0  0  0  0  0  0  0
   -1.9975  -10.1845    0.0000 C   0  0  0  0  0  0  0  0  0  0  0  0
   -0.6272   -9.5744    0.0000 C   0  0  0  0  0  0  0  0  0  0  0  0
   -0.4704   -8.0826    0.0000 C   0  0  0  0  0  0  0  0  0  0  0  0
    0.8999   -7.4725    0.0000 Cl  0  0  0  0  0  0  0  0  0  0  0  0
   -0.1568   -5.0991    0.0000 C   0  0  0  0  0  0  0  0  0  0  0  0
   -0.0000   -3.6073    0.0000 C   0  0  0  0  0  0  0  0  0  0  0  0
   -4.2079   -5.1394    0.0000 C   0  0  0  0  0  0  0  0  0  0  0  0
   -4.8180   -6.5097    0.0000 O   0  0  0  0  0  0  0  0  0  0  0  0
   -4.9579   -3.8403    0.0000 N   0  0  0  0  0  0  0  0  0  0  0  0
   -3.9542   -2.7256    0.0000 C   0  0  0  0  0  0  0  0  0  0  0  0
   -4.2660   -1.2584    0.0000 O   0  0  0  0  0  0  0  0  0  0  0  0
  1  2  1  0
  2  3  1  0
  3  4  2  0
  4  5  1  0
  5  6  1  0
  6  7  1  0
  7  8  1  0
  8  9  1  0
  9 10  1  0
 10 11  1  0
 11 12  1  0
 12 13  1  0
 13 14  1  0
 14 15  1  0
  5 16  2  0
 16 17  1  0
 16 18  1  0
 18 19  2  0
 19 20  1  0
 20 21  2  0
 21 22  1  0
 22 23  2  0
 23 24  1  0
 24 25  2  0
 25 26  1  0
 26 27  2  0
 27 28  1  0
 28 29  2  0
 29 30  1  0
 23 31  1  0
 31 32  2  0
 22 33  1  0
 33 34  2  0
 33 35  1  0
 35 36  1  0
 36 37  2  0
 32  2  1  0
 19  3  1  0
 32 20  1  0
 15 10  1  0
 36 21  1  0
 29 24  1  0
M  END
>  <Compound_ID>  (96) 
CHEMBL438566

>  <Active>  (96) 
1

>  <Smiles>  (96) 
Cn1c2cc(CCCCN3CCOCC3)c(O)cc2c2c3c(c(-c4ccccc4Cl)cc21)C(=O)NC3=O

>  <canonical_smi>  (96) 
Cn1c2cc(CCCCN3CCOCC3)c(O)cc2c2c3c(c(-c4ccccc4Cl)cc21)C(=O)NC3=O

>  <Set>  (96) 
G2 active

>  <Set_type>  (96) 
Test

>  <MW>  (96) 
518.01

>  <HBD>  (96) 
2

>  <HBA>  (96) 
5

>  <NRB>  (96) 
6

>  <NR>  (96) 
6

>  <NAR>  (96) 
4

>  <PSA>  (96) 
83.8

>  <Standard Type>  (96) 
nan

>  <Standard Relation>  (96) 
nan

>  <Standard Units>  (96) 
nan

>  <Standard Value>  (96) 
nan

>  <Assay ChEMBL ID>  (96) 
nan

>  <Assay Description>  (96) 
nan

>  <BAO Label>  (96) 
nan

$$$$

     RDKit          2D

 36 41  0  0  0  0  0  0  0  0999 V2000
   -4.8180   -6.5097    0.0000 O   0  0  0  0  0  0  0  0  0  0  0  0
   -4.2079   -5.1394    0.0000 C   0  0  0  0  0  0  0  0  0  0  0  0
   -4.9579   -3.8403    0.0000 N   0  0  0  0  0  0  0  0  0  0  0  0
   -3.9542   -2.7256    0.0000 C   0  0  0  0  0  0  0  0  0  0  0  0
   -4.2660   -1.2584    0.0000 O   0  0  0  0  0  0  0  0  0  0  0  0
   -2.5838   -3.3357    0.0000 C   0  0  0  0  0  0  0  0  0  0  0  0
   -2.7406   -4.8275    0.0000 C   0  0  0  0  0  0  0  0  0  0  0  0
   -1.5271   -5.7092    0.0000 C   0  0  0  0  0  0  0  0  0  0  0  0
   -1.6839   -7.2010    0.0000 C   0  0  0  0  0  0  0  0  0  0  0  0
   -3.0542   -7.8111    0.0000 C   0  0  0  0  0  0  0  0  0  0  0  0
   -3.2110   -9.3029    0.0000 C   0  0  0  0  0  0  0  0  0  0  0  0
   -1.9975  -10.1845    0.0000 C   0  0  0  0  0  0  0  0  0  0  0  0
   -0.6272   -9.5744    0.0000 C   0  0  0  0  0  0  0  0  0  0  0  0
   -0.4704   -8.0826    0.0000 C   0  0  0  0  0  0  0  0  0  0  0  0
    0.8999   -7.4725    0.0000 Cl  0  0  0  0  0  0  0  0  0  0  0  0
   -0.1568   -5.0991    0.0000 C   0  0  0  0  0  0  0  0  0  0  0  0
   -0.0000   -3.6073    0.0000 C   0  0  0  0  0  0  0  0  0  0  0  0
    1.2135   -2.7256    0.0000 N   0  0  0  0  0  0  0  0  0  0  0  0
    0.7500   -1.2990    0.0000 C   0  0  0  0  0  0  0  0  0  0  0  0
    1.5000    0.0000    0.0000 C   0  0  0  0  0  0  0  0  0  0  0  0
    0.7500    1.2990    0.0000 C   0  0  0  0  0  0  0  0  0  0  0  0
    1.5000    2.5981    0.0000 C   0  0  0  0  0  0  0  0  0  0  0  0
    3.0000    2.5981    0.0000 C   0  0  0  0  0  0  0  0  0  0  0  0
    3.7500    3.8971    0.0000 C   0  0  0  0  0  0  0  0  0  0  0  0
    5.2500    3.8971    0.0000 C   0  0  0  0  0  0  0  0  0  0  0  0
    6.0000    5.1962    0.0000 N   0  0  0  0  0  0  0  0  0  0  0  0
    7.5000    5.1962    0.0000 C   0  0  0  0  0  0  0  0  0  0  0  0
    8.2500    6.4952    0.0000 C   0  0  0  0  0  0  0  0  0  0  0  0
    7.5000    7.7942    0.0000 O   0  0  0  0  0  0  0  0  0  0  0  0
    6.0000    7.7942    0.0000 C   0  0  0  0  0  0  0  0  0  0  0  0
    5.2500    6.4952    0.0000 C   0  0  0  0  0  0  0  0  0  0  0  0
   -0.7500    1.2990    0.0000 C   0  0  0  0  0  0  0  0  0  0  0  0
   -1.5000    2.5981    0.0000 O   0  0  0  0  0  0  0  0  0  0  0  0
   -1.5000    0.0000    0.0000 C   0  0  0  0  0  0  0  0  0  0  0  0
   -0.7500   -1.2990    0.0000 C   0  0  0  0  0  0  0  0  0  0  0  0
   -1.2135   -2.7256    0.0000 C   0  0  0  0  0  0  0  0  0  0  0  0
  1  2  2  0
  2  3  1  0
  3  4  1  0
  4  5  2  0
  4  6  1  0
  6  7  2  0
  7  8  1  0
  8  9  1  0
  9 10  2  0
 10 11  1  0
 11 12  2  0
 12 13  1  0
 13 14  2  0
 14 15  1  0
  8 16  2  0
 16 17  1  0
 17 18  1  0
 18 19  1  0
 19 20  2  0
 20 21  1  0
 21 22  1  0
 22 23  1  0
 23 24  1  0
 24 25  1  0
 25 26  1  0
 26 27  1  0
 27 28  1  0
 28 29  1  0
 29 30  1  0
 30 31  1  0
 21 32  2  0
 32 33  1  0
 32 34  1  0
 34 35  2  0
 35 36  1  0
  7  2  1  0
 14  9  1  0
 36 17  2  0
 36  6  1  0
 35 19  1  0
 31 26  1  0
M  END
>  <Compound_ID>  (97) 
CHEMBL403679

>  <Active>  (97) 
1

>  <Smiles>  (97) 
O=C1NC(=O)c2c1c(-c1ccccc1Cl)cc1[nH]c3cc(CCCCN4CCOCC4)c(O)cc3c21

>  <canonical_smi>  (97) 
O=C1NC(=O)c2c1c(-c1ccccc1Cl)cc1[nH]c3cc(CCCCN4CCOCC4)c(O)cc3c21

>  <Set>  (97) 
G2 active

>  <Set_type>  (97) 
Test

>  <MW>  (97) 
503.99

>  <HBD>  (97) 
3

>  <HBA>  (97) 
5

>  <NRB>  (97) 
6

>  <NR>  (97) 
6

>  <NAR>  (97) 
4

>  <PSA>  (97) 
94.66

>  <Standard Type>  (97) 
nan

>  <Standard Relation>  (97) 
nan

>  <Standard Units>  (97) 
nan

>  <Standard Value>  (97) 
nan

>  <Assay ChEMBL ID>  (97) 
nan

>  <Assay Description>  (97) 
nan

>  <BAO Label>  (97) 
nan

$$$$

     RDKit          2D

 34 39  0  0  0  0  0  0  0  0999 V2000
    4.8180   -6.5097    0.0000 O   0  0  0  0  0  0  0  0  0  0  0  0
    4.2079   -5.1394    0.0000 C   0  0  0  0  0  0  0  0  0  0  0  0
    4.9579   -3.8403    0.0000 N   0  0  0  0  0  0  0  0  0  0  0  0
    3.9542   -2.7256    0.0000 C   0  0  0  0  0  0  0  0  0  0  0  0
    4.2660   -1.2584    0.0000 O   0  0  0  0  0  0  0  0  0  0  0  0
    2.5838   -3.3357    0.0000 C   0  0  0  0  0  0  0  0  0  0  0  0
    2.7406   -4.8275    0.0000 C   0  0  0  0  0  0  0  0  0  0  0  0
    1.5271   -5.7092    0.0000 C   0  0  0  0  0  0  0  0  0  0  0  0
    1.6839   -7.2010    0.0000 C   0  0  0  0  0  0  0  0  0  0  0  0
    3.0542   -7.8111    0.0000 C   0  0  0  0  0  0  0  0  0  0  0  0
    3.2110   -9.3029    0.0000 C   0  0  0  0  0  0  0  0  0  0  0  0
    1.9975  -10.1845    0.0000 C   0  0  0  0  0  0  0  0  0  0  0  0
    0.6272   -9.5744    0.0000 C   0  0  0  0  0  0  0  0  0  0  0  0
    0.4704   -8.0826    0.0000 C   0  0  0  0  0  0  0  0  0  0  0  0
   -0.8999   -7.4725    0.0000 Cl  0  0  0  0  0  0  0  0  0  0  0  0
    0.1568   -5.0991    0.0000 C   0  0  0  0  0  0  0  0  0  0  0  0
   -0.0000   -3.6073    0.0000 C   0  0  0  0  0  0  0  0  0  0  0  0
    1.2135   -2.7256    0.0000 C   0  0  0  0  0  0  0  0  0  0  0  0
    0.7500   -1.2990    0.0000 C   0  0  0  0  0  0  0  0  0  0  0  0
    1.5000    0.0000    0.0000 C   0  0  0  0  0  0  0  0  0  0  0  0
    0.7500    1.2990    0.0000 C   0  0  0  0  0  0  0  0  0  0  0  0
    1.5000    2.5981    0.0000 O   0  0  0  0  0  0  0  0  0  0  0  0
   -0.7500    1.2990    0.0000 C   0  0  0  0  0  0  0  0  0  0  0  0
   -1.5000    0.0000    0.0000 C   0  0  0  0  0  0  0  0  0  0  0  0
   -0.7500   -1.2990    0.0000 C   0  0  0  0  0  0  0  0  0  0  0  0
   -1.2135   -2.7256    0.0000 N   0  0  0  0  0  0  0  0  0  0  0  0
   -2.6401   -3.1891    0.0000 C   0  0  0  0  0  0  0  0  0  0  0  0
   -3.7548   -2.1855    0.0000 C   0  0  0  0  0  0  0  0  0  0  0  0
   -5.1814   -2.6490    0.0000 C   0  0  0  0  0  0  0  0  0  0  0  0
   -6.2961   -1.6453    0.0000 N   0  0  0  0  0  0  0  0  0  0  0  0
   -7.7634   -1.9571    0.0000 C   0  0  0  0  0  0  0  0  0  0  0  0
   -8.5134   -0.6581    0.0000 C   0  0  0  0  0  0  0  0  0  0  0  0
   -7.5097    0.4566    0.0000 N   0  0  0  0  0  0  0  0  0  0  0  0
   -6.1393   -0.1535    0.0000 C   0  0  0  0  0  0  0  0  0  0  0  0
  1  2  2  0
  2  3  1  0
  3  4  1  0
  4  5  2  0
  4  6  1  0
  6  7  2  0
  7  8  1  0
  8  9  1  0
  9 10  2  0
 10 11  1  0
 11 12  2  0
 12 13  1  0
 13 14  2  0
 14 15  1  0
  8 16  2  0
 16 17  1  0
 17 18  2  0
 18 19  1  0
 19 20  2  0
 20 21  1  0
 21 22  1  0
 21 23  2  0
 23 24  1  0
 24 25  2  0
 25 26  1  0
 26 27  1  0
 27 28  1  0
 28 29  1  0
 29 30  1  0
 30 31  1  0
 31 32  2  0
 32 33  1  0
 33 34  2  0
  7  2  1  0
 14  9  1  0
 26 17  1  0
 34 30  1  0
 18  6  1  0
 25 19  1  0
M  END
>  <Compound_ID>  (98) 
CHEMBL486665

>  <Active>  (98) 
1

>  <Smiles>  (98) 
O=C1NC(=O)c2c1c(-c1ccccc1Cl)cc1c2c2cc(O)ccc2n1CCCn1ccnc1

>  <canonical_smi>  (98) 
O=C1NC(=O)c2c1c(-c1ccccc1Cl)cc1c2c2cc(O)ccc2n1CCCn1ccnc1

>  <Set>  (98) 
G2 active

>  <Set_type>  (98) 
Test

>  <MW>  (98) 
470.92

>  <HBD>  (98) 
2

>  <HBA>  (98) 
4

>  <NRB>  (98) 
5

>  <NR>  (98) 
6

>  <NAR>  (98) 
5

>  <PSA>  (98) 
89.15

>  <Standard Type>  (98) 
nan

>  <Standard Relation>  (98) 
nan

>  <Standard Units>  (98) 
nan

>  <Standard Value>  (98) 
nan

>  <Assay ChEMBL ID>  (98) 
nan

>  <Assay Description>  (98) 
nan

>  <BAO Label>  (98) 
nan

$$$$

     RDKit          2D

 37 42  0  0  0  0  0  0  0  0999 V2000
    2.6401   -3.1891    0.0000 C   0  0  0  0  0  0  0  0  0  0  0  0
    1.2135   -2.7256    0.0000 N   0  0  0  0  0  0  0  0  0  0  0  0
    0.7500   -1.2990    0.0000 C   0  0  0  0  0  0  0  0  0  0  0  0
    1.5000    0.0000    0.0000 C   0  0  0  0  0  0  0  0  0  0  0  0
    0.7500    1.2990    0.0000 C   0  0  0  0  0  0  0  0  0  0  0  0
    1.5000    2.5981    0.0000 O   0  0  0  0  0  0  0  0  0  0  0  0
    3.0000    2.5981    0.0000 C   0  0  0  0  0  0  0  0  0  0  0  0
    3.7500    3.8971    0.0000 C   0  0  0  0  0  0  0  0  0  0  0  0
    5.2500    3.8971    0.0000 C   0  0  0  0  0  0  0  0  0  0  0  0
    6.0000    5.1962    0.0000 N   0  0  0  0  0  0  0  0  0  0  0  0
    7.5000    5.1962    0.0000 C   0  0  0  0  0  0  0  0  0  0  0  0
    8.2500    6.4952    0.0000 C   0  0  0  0  0  0  0  0  0  0  0  0
    7.5000    7.7942    0.0000 O   0  0  0  0  0  0  0  0  0  0  0  0
    6.0000    7.7942    0.0000 C   0  0  0  0  0  0  0  0  0  0  0  0
    5.2500    6.4952    0.0000 C   0  0  0  0  0  0  0  0  0  0  0  0
   -0.7500    1.2990    0.0000 C   0  0  0  0  0  0  0  0  0  0  0  0
   -1.5000    2.5981    0.0000 O   0  0  0  0  0  0  0  0  0  0  0  0
   -1.5000    0.0000    0.0000 C   0  0  0  0  0  0  0  0  0  0  0  0
   -0.7500   -1.2990    0.0000 C   0  0  0  0  0  0  0  0  0  0  0  0
   -1.2135   -2.7256    0.0000 C   0  0  0  0  0  0  0  0  0  0  0  0
   -2.5838   -3.3357    0.0000 C   0  0  0  0  0  0  0  0  0  0  0  0
   -2.7406   -4.8275    0.0000 C   0  0  0  0  0  0  0  0  0  0  0  0
   -1.5271   -5.7092    0.0000 C   0  0  0  0  0  0  0  0  0  0  0  0
   -1.6839   -7.2010    0.0000 C   0  0  0  0  0  0  0  0  0  0  0  0
   -3.0542   -7.8111    0.0000 C   0  0  0  0  0  0  0  0  0  0  0  0
   -3.2110   -9.3029    0.0000 C   0  0  0  0  0  0  0  0  0  0  0  0
   -1.9975  -10.1845    0.0000 C   0  0  0  0  0  0  0  0  0  0  0  0
   -0.6272   -9.5744    0.0000 C   0  0  0  0  0  0  0  0  0  0  0  0
   -0.4704   -8.0826    0.0000 C   0  0  0  0  0  0  0  0  0  0  0  0
    0.8999   -7.4725    0.0000 Cl  0  0  0  0  0  0  0  0  0  0  0  0
   -0.1568   -5.0991    0.0000 C   0  0  0  0  0  0  0  0  0  0  0  0
   -0.0000   -3.6073    0.0000 C   0  0  0  0  0  0  0  0  0  0  0  0
   -4.2079   -5.1394    0.0000 C   0  0  0  0  0  0  0  0  0  0  0  0
   -4.8180   -6.5097    0.0000 O   0  0  0  0  0  0  0  0  0  0  0  0
   -4.9579   -3.8403    0.0000 N   0  0  0  0  0  0  0  0  0  0  0  0
   -3.9542   -2.7256    0.0000 C   0  0  0  0  0  0  0  0  0  0  0  0
   -4.2660   -1.2584    0.0000 O   0  0  0  0  0  0  0  0  0  0  0  0
  1  2  1  0
  2  3  1  0
  3  4  2  0
  4  5  1  0
  5  6  1  0
  6  7  1  0
  7  8  1  0
  8  9  1  0
  9 10  1  0
 10 11  1  0
 11 12  1  0
 12 13  1  0
 13 14  1  0
 14 15  1  0
  5 16  2  0
 16 17  1  0
 16 18  1  0
 18 19  2  0
 19 20  1  0
 20 21  2  0
 21 22  1  0
 22 23  2  0
 23 24  1  0
 24 25  2  0
 25 26  1  0
 26 27  2  0
 27 28  1  0
 28 29  2  0
 29 30  1  0
 23 31  1  0
 31 32  2  0
 22 33  1  0
 33 34  2  0
 33 35  1  0
 35 36  1  0
 36 37  2  0
 32  2  1  0
 19  3  1  0
 32 20  1  0
 15 10  1  0
 36 21  1  0
 29 24  1  0
M  END
>  <Compound_ID>  (99) 
CHEMBL272351

>  <Active>  (99) 
1

>  <Smiles>  (99) 
Cn1c2cc(OCCCN3CCOCC3)c(O)cc2c2c3c(c(-c4ccccc4Cl)cc21)C(=O)NC3=O

>  <canonical_smi>  (99) 
Cn1c2cc(OCCCN3CCOCC3)c(O)cc2c2c3c(c(-c4ccccc4Cl)cc21)C(=O)NC3=O

>  <Set>  (99) 
G2 active

>  <Set_type>  (99) 
Test

>  <MW>  (99) 
519.99

>  <HBD>  (99) 
2

>  <HBA>  (99) 
6

>  <NRB>  (99) 
6

>  <NR>  (99) 
6

>  <NAR>  (99) 
4

>  <PSA>  (99) 
93.03

>  <Standard Type>  (99) 
nan

>  <Standard Relation>  (99) 
nan

>  <Standard Units>  (99) 
nan

>  <Standard Value>  (99) 
nan

>  <Assay ChEMBL ID>  (99) 
nan

>  <Assay Description>  (99) 
nan

>  <BAO Label>  (99) 
nan

$$$$

     RDKit          2D

 37 42  0  0  0  0  0  0  0  0999 V2000
    4.9032   -6.2965    0.0000 O   0  0  0  0  0  0  0  0  0  0  0  0
    4.2079   -5.1394    0.0000 C   0  0  0  0  0  0  0  0  0  0  0  0
    4.9579   -3.8403    0.0000 N   0  0  0  0  0  0  0  0  0  0  0  0
    3.9542   -2.7256    0.0000 C   0  0  0  0  0  0  0  0  0  0  0  0
    4.2660   -1.2584    0.0000 O   0  0  0  0  0  0  0  0  0  0  0  0
    2.5838   -3.3357    0.0000 C   0  0  0  0  0  0  0  0  0  0  0  0
    2.7406   -4.8275    0.0000 C   0  0  0  0  0  0  0  0  0  0  0  0
    1.5271   -5.7092    0.0000 C   0  0  0  0  0  0  0  0  0  0  0  0
    1.6839   -7.2010    0.0000 C   0  0  0  0  0  0  0  0  0  0  0  0
    3.0542   -7.8111    0.0000 C   0  0  0  0  0  0  0  0  0  0  0  0
    4.2350   -7.1566    0.0000 Cl  0  0  0  0  0  0  0  0  0  0  0  0
    3.2110   -9.3029    0.0000 C   0  0  0  0  0  0  0  0  0  0  0  0
    1.9975  -10.1845    0.0000 C   0  0  0  0  0  0  0  0  0  0  0  0
    0.6272   -9.5744    0.0000 C   0  0  0  0  0  0  0  0  0  0  0  0
    0.4704   -8.0826    0.0000 C   0  0  0  0  0  0  0  0  0  0  0  0
   -0.8999   -7.4725    0.0000 Cl  0  0  0  0  0  0  0  0  0  0  0  0
    0.1568   -5.0991    0.0000 C   0  0  0  0  0  0  0  0  0  0  0  0
   -0.0000   -3.6073    0.0000 C   0  0  0  0  0  0  0  0  0  0  0  0
    1.2135   -2.7256    0.0000 C   0  0  0  0  0  0  0  0  0  0  0  0
    0.7500   -1.2990    0.0000 C   0  0  0  0  0  0  0  0  0  0  0  0
    1.5000    0.0000    0.0000 C   0  0  0  0  0  0  0  0  0  0  0  0
    0.7500    1.2990    0.0000 C   0  0  0  0  0  0  0  0  0  0  0  0
    1.5000    2.5981    0.0000 O   0  0  0  0  0  0  0  0  0  0  0  0
   -0.7500    1.2990    0.0000 C   0  0  0  0  0  0  0  0  0  0  0  0
   -1.5000    0.0000    0.0000 C   0  0  0  0  0  0  0  0  0  0  0  0
   -0.7500   -1.2990    0.0000 C   0  0  0  0  0  0  0  0  0  0  0  0
   -1.2135   -2.7256    0.0000 N   0  0  0  0  0  0  0  0  0  0  0  0
   -2.6401   -3.1891    0.0000 C   0  0  0  0  0  0  0  0  0  0  0  0
   -3.7548   -2.1855    0.0000 C   0  0  0  0  0  0  0  0  0  0  0  0
   -5.1814   -2.6490    0.0000 C   0  0  0  0  0  0  0  0  0  0  0  0
   -6.2961   -1.6453    0.0000 C   0  0  0  0  0  0  0  0  0  0  0  0
   -5.9843   -0.1781    0.0000 O   0  0  0  0  0  0  0  0  0  0  0  0
   -7.7227   -2.1088    0.0000 N   0  0  0  0  0  0  0  0  0  0  0  0
   -8.1862   -3.5354    0.0000 C   0  0  0  0  0  0  0  0  0  0  0  0
   -9.6862   -3.5354    0.0000 C   0  0  0  0  0  0  0  0  0  0  0  0
  -10.1498   -2.1088    0.0000 N   0  0  0  0  0  0  0  0  0  0  0  0
   -8.9362   -1.2271    0.0000 C   0  0  0  0  0  0  0  0  0  0  0  0
  1  2  2  0
  2  3  1  0
  3  4  1  0
  4  5  2  0
  4  6  1  0
  6  7  2  0
  7  8  1  0
  8  9  1  0
  9 10  2  0
 10 11  1  0
 10 12  1  0
 12 13  2  0
 13 14  1  0
 14 15  2  0
 15 16  1  0
  8 17  2  0
 17 18  1  0
 18 19  2  0
 19 20  1  0
 20 21  2  0
 21 22  1  0
 22 23  1  0
 22 24  2  0
 24 25  1  0
 25 26  2  0
 26 27  1  0
 27 28  1  0
 28 29  1  0
 29 30  1  0
 30 31  1  0
 31 32  2  0
 31 33  1  0
 33 34  1  0
 34 35  2  0
 35 36  1  0
 36 37  2  0
  7  2  1  0
 15  9  1  0
 27 18  1  0
 37 33  1  0
 19  6  1  0
 26 20  1  0
M  END
>  <Compound_ID>  (100) 
CHEMBL483786

>  <Active>  (100) 
1

>  <Smiles>  (100) 
O=C1NC(=O)c2c1c(-c1c(Cl)cccc1Cl)cc1c2c2cc(O)ccc2n1CCCC(=O)n1ccnc1

>  <canonical_smi>  (100) 
O=C1NC(=O)c2c1c(-c1c(Cl)cccc1Cl)cc1c2c2cc(O)ccc2n1CCCC(=O)n1ccnc1

>  <Set>  (100) 
G2 active

>  <Set_type>  (100) 
Test

>  <MW>  (100) 
533.37

>  <HBD>  (100) 
2

>  <HBA>  (100) 
5

>  <NRB>  (100) 
5

>  <NR>  (100) 
6

>  <NAR>  (100) 
5

>  <PSA>  (100) 
106.22

>  <Standard Type>  (100) 
nan

>  <Standard Relation>  (100) 
nan

>  <Standard Units>  (100) 
nan

>  <Standard Value>  (100) 
nan

>  <Assay ChEMBL ID>  (100) 
nan

>  <Assay Description>  (100) 
nan

>  <BAO Label>  (100) 
nan

$$$$

     RDKit          2D

 34 39  0  0  0  0  0  0  0  0999 V2000
    4.8180   -6.5097    0.0000 O   0  0  0  0  0  0  0  0  0  0  0  0
    4.2079   -5.1394    0.0000 C   0  0  0  0  0  0  0  0  0  0  0  0
    4.9579   -3.8403    0.0000 N   0  0  0  0  0  0  0  0  0  0  0  0
    3.9542   -2.7256    0.0000 C   0  0  0  0  0  0  0  0  0  0  0  0
    4.2660   -1.2584    0.0000 O   0  0  0  0  0  0  0  0  0  0  0  0
    2.5838   -3.3357    0.0000 C   0  0  0  0  0  0  0  0  0  0  0  0
    2.7406   -4.8275    0.0000 C   0  0  0  0  0  0  0  0  0  0  0  0
    1.5271   -5.7092    0.0000 C   0  0  0  0  0  0  0  0  0  0  0  0
    1.6839   -7.2010    0.0000 C   0  0  0  0  0  0  0  0  0  0  0  0
    3.0542   -7.8111    0.0000 C   0  0  0  0  0  0  0  0  0  0  0  0
    3.2110   -9.3029    0.0000 C   0  0  0  0  0  0  0  0  0  0  0  0
    1.9975  -10.1845    0.0000 C   0  0  0  0  0  0  0  0  0  0  0  0
    0.6272   -9.5744    0.0000 C   0  0  0  0  0  0  0  0  0  0  0  0
    0.4704   -8.0826    0.0000 C   0  0  0  0  0  0  0  0  0  0  0  0
   -0.8999   -7.4725    0.0000 Cl  0  0  0  0  0  0  0  0  0  0  0  0
    0.1568   -5.0991    0.0000 C   0  0  0  0  0  0  0  0  0  0  0  0
   -0.0000   -3.6073    0.0000 C   0  0  0  0  0  0  0  0  0  0  0  0
    1.2135   -2.7256    0.0000 C   0  0  0  0  0  0  0  0  0  0  0  0
    0.7500   -1.2990    0.0000 C   0  0  0  0  0  0  0  0  0  0  0  0
    1.5000    0.0000    0.0000 C   0  0  0  0  0  0  0  0  0  0  0  0
    0.7500    1.2990    0.0000 C   0  0  0  0  0  0  0  0  0  0  0  0
    1.5000    2.5981    0.0000 O   0  0  0  0  0  0  0  0  0  0  0  0
   -0.7500    1.2990    0.0000 C   0  0  0  0  0  0  0  0  0  0  0  0
   -1.5000    0.0000    0.0000 C   0  0  0  0  0  0  0  0  0  0  0  0
   -0.7500   -1.2990    0.0000 C   0  0  0  0  0  0  0  0  0  0  0  0
   -1.2135   -2.7256    0.0000 N   0  0  0  0  0  0  0  0  0  0  0  0
   -2.6401   -3.1891    0.0000 C   0  0  0  0  0  0  0  0  0  0  0  0
   -3.7548   -2.1855    0.0000 C   0  0  0  0  0  0  0  0  0  0  0  0
   -5.1814   -2.6490    0.0000 N   0  0  0  0  0  0  0  0  0  0  0  0
   -6.2961   -1.6453    0.0000 C   0  0  0  0  0  0  0  0  0  0  0  0
   -7.7227   -2.1088    0.0000 C   0  0  0  0  0  0  0  0  0  0  0  0
   -8.0346   -3.5760    0.0000 O   0  0  0  0  0  0  0  0  0  0  0  0
   -6.9199   -4.5797    0.0000 C   0  0  0  0  0  0  0  0  0  0  0  0
   -5.4933   -4.1162    0.0000 C   0  0  0  0  0  0  0  0  0  0  0  0
  1  2  2  0
  2  3  1  0
  3  4  1  0
  4  5  2  0
  4  6  1  0
  6  7  2  0
  7  8  1  0
  8  9  1  0
  9 10  2  0
 10 11  1  0
 11 12  2  0
 12 13  1  0
 13 14  2  0
 14 15  1  0
  8 16  2  0
 16 17  1  0
 17 18  2  0
 18 19  1  0
 19 20  2  0
 20 21  1  0
 21 22  1  0
 21 23  2  0
 23 24  1  0
 24 25  2  0
 25 26  1  0
 26 27  1  0
 27 28  1  0
 28 29  1  0
 29 30  1  0
 30 31  1  0
 31 32  1  0
 32 33  1  0
 33 34  1  0
  7  2  1  0
 14  9  1  0
 26 17  1  0
 34 29  1  0
 18  6  1  0
 25 19  1  0
M  END
>  <Compound_ID>  (101) 
CHEMBL529669

>  <Active>  (101) 
1

>  <Smiles>  (101) 
O=C1NC(=O)c2c1c(-c1ccccc1Cl)cc1c2c2cc(O)ccc2n1CCN1CCOCC1

>  <canonical_smi>  (101) 
O=C1NC(=O)c2c1c(-c1ccccc1Cl)cc1c2c2cc(O)ccc2n1CCN1CCOCC1

>  <Set>  (101) 
G2 active

>  <Set_type>  (101) 
Test

>  <MW>  (101) 
475.93

>  <HBD>  (101) 
2

>  <HBA>  (101) 
5

>  <NRB>  (101) 
4

>  <NR>  (101) 
6

>  <NAR>  (101) 
4

>  <PSA>  (101) 
83.8

>  <Standard Type>  (101) 
nan

>  <Standard Relation>  (101) 
nan

>  <Standard Units>  (101) 
nan

>  <Standard Value>  (101) 
nan

>  <Assay ChEMBL ID>  (101) 
nan

>  <Assay Description>  (101) 
nan

>  <BAO Label>  (101) 
nan

$$$$

     RDKit          2D

 38 43  0  0  0  0  0  0  0  0999 V2000
    4.9032   -6.2965    0.0000 O   0  0  0  0  0  0  0  0  0  0  0  0
    4.2079   -5.1394    0.0000 C   0  0  0  0  0  0  0  0  0  0  0  0
    4.9579   -3.8403    0.0000 N   0  0  0  0  0  0  0  0  0  0  0  0
    3.9542   -2.7256    0.0000 C   0  0  0  0  0  0  0  0  0  0  0  0
    4.2660   -1.2584    0.0000 O   0  0  0  0  0  0  0  0  0  0  0  0
    2.5838   -3.3357    0.0000 C   0  0  0  0  0  0  0  0  0  0  0  0
    2.7406   -4.8275    0.0000 C   0  0  0  0  0  0  0  0  0  0  0  0
    1.5271   -5.7092    0.0000 C   0  0  0  0  0  0  0  0  0  0  0  0
    1.6839   -7.2010    0.0000 C   0  0  0  0  0  0  0  0  0  0  0  0
    3.0542   -7.8111    0.0000 C   0  0  0  0  0  0  0  0  0  0  0  0
    4.2350   -7.1566    0.0000 Cl  0  0  0  0  0  0  0  0  0  0  0  0
    3.2110   -9.3029    0.0000 C   0  0  0  0  0  0  0  0  0  0  0  0
    1.9975  -10.1845    0.0000 C   0  0  0  0  0  0  0  0  0  0  0  0
    0.6272   -9.5744    0.0000 C   0  0  0  0  0  0  0  0  0  0  0  0
    0.4704   -8.0826    0.0000 C   0  0  0  0  0  0  0  0  0  0  0  0
   -0.8999   -7.4725    0.0000 Cl  0  0  0  0  0  0  0  0  0  0  0  0
    0.1568   -5.0991    0.0000 C   0  0  0  0  0  0  0  0  0  0  0  0
   -0.0000   -3.6073    0.0000 C   0  0  0  0  0  0  0  0  0  0  0  0
    1.2135   -2.7256    0.0000 C   0  0  0  0  0  0  0  0  0  0  0  0
    0.7500   -1.2990    0.0000 C   0  0  0  0  0  0  0  0  0  0  0  0
    1.5000    0.0000    0.0000 C   0  0  0  0  0  0  0  0  0  0  0  0
    0.7500    1.2990    0.0000 C   0  0  0  0  0  0  0  0  0  0  0  0
    1.5000    2.5981    0.0000 O   0  0  0  0  0  0  0  0  0  0  0  0
   -0.7500    1.2990    0.0000 C   0  0  0  0  0  0  0  0  0  0  0  0
   -1.5000    0.0000    0.0000 C   0  0  0  0  0  0  0  0  0  0  0  0
   -0.7500   -1.2990    0.0000 C   0  0  0  0  0  0  0  0  0  0  0  0
   -1.2135   -2.7256    0.0000 N   0  0  0  0  0  0  0  0  0  0  0  0
   -2.6401   -3.1891    0.0000 C   0  0  0  0  0  0  0  0  0  0  0  0
   -3.7548   -2.1855    0.0000 C   0  0  0  0  0  0  0  0  0  0  0  0
   -5.1814   -2.6490    0.0000 C   0  0  0  0  0  0  0  0  0  0  0  0
   -6.2961   -1.6453    0.0000 C   0  0  0  0  0  0  0  0  0  0  0  0
   -5.9843   -0.1781    0.0000 O   0  0  0  0  0  0  0  0  0  0  0  0
   -7.7227   -2.1088    0.0000 N   0  0  0  0  0  0  0  0  0  0  0  0
   -8.8374   -1.1051    0.0000 C   0  0  0  0  0  0  0  0  0  0  0  0
  -10.2640   -1.5686    0.0000 C   0  0  0  0  0  0  0  0  0  0  0  0
  -10.5759   -3.0359    0.0000 O   0  0  0  0  0  0  0  0  0  0  0  0
   -9.4612   -4.0396    0.0000 C   0  0  0  0  0  0  0  0  0  0  0  0
   -8.0346   -3.5760    0.0000 C   0  0  0  0  0  0  0  0  0  0  0  0
  1  2  2  0
  2  3  1  0
  3  4  1  0
  4  5  2  0
  4  6  1  0
  6  7  2  0
  7  8  1  0
  8  9  1  0
  9 10  2  0
 10 11  1  0
 10 12  1  0
 12 13  2  0
 13 14  1  0
 14 15  2  0
 15 16  1  0
  8 17  2  0
 17 18  1  0
 18 19  2  0
 19 20  1  0
 20 21  2  0
 21 22  1  0
 22 23  1  0
 22 24  2  0
 24 25  1  0
 25 26  2  0
 26 27  1  0
 27 28  1  0
 28 29  1  0
 29 30  1  0
 30 31  1  0
 31 32  2  0
 31 33  1  0
 33 34  1  0
 34 35  1  0
 35 36  1  0
 36 37  1  0
 37 38  1  0
  7  2  1  0
 15  9  1  0
 27 18  1  0
 38 33  1  0
 19  6  1  0
 26 20  1  0
M  END
>  <Compound_ID>  (102) 
CHEMBL483611

>  <Active>  (102) 
1

>  <Smiles>  (102) 
O=C1NC(=O)c2c1c(-c1c(Cl)cccc1Cl)cc1c2c2cc(O)ccc2n1CCCC(=O)N1CCOCC1

>  <canonical_smi>  (102) 
O=C1NC(=O)c2c1c(-c1c(Cl)cccc1Cl)cc1c2c2cc(O)ccc2n1CCCC(=O)N1CCOCC1

>  <Set>  (102) 
G2 active

>  <Set_type>  (102) 
Test

>  <MW>  (102) 
552.41

>  <HBD>  (102) 
2

>  <HBA>  (102) 
5

>  <NRB>  (102) 
5

>  <NR>  (102) 
6

>  <NAR>  (102) 
4

>  <PSA>  (102) 
100.87

>  <Standard Type>  (102) 
nan

>  <Standard Relation>  (102) 
nan

>  <Standard Units>  (102) 
nan

>  <Standard Value>  (102) 
nan

>  <Assay ChEMBL ID>  (102) 
nan

>  <Assay Description>  (102) 
nan

>  <BAO Label>  (102) 
nan

$$$$
